
 Fire Dynamics Simulator

 Current Date     : February 19, 2021  11:46:40
 Revision         : FDS6.7.5-0-g71f025606-release
 Revision Date    : Thu Aug 20 16:19:01 2020 -0400
 Compiler         : Intel ifort 19.1.1.216
 Compilation Date : Fri 08/21/2020  04:51 PM

 MPI Enabled;    Number of MPI Processes:       1
 OpenMP Enabled; Number of OpenMP Threads:      1

 MPI version: 3.1
 MPI library version: Intel(R) MPI Library 2019 Update 7 for Windows* OS


 Job TITLE        : 
 Job ID string    : meshres


 Grid Dimensions, Mesh     1

   Cells in the X Direction            72
   Cells in the Y Direction            12
   Cells in the Z Direction            24
   Number of Grid Cells             20736


 Physical Dimensions, Mesh     1

   Length (m)                       7.200
   Width  (m)                       1.200
   Height (m)                       2.400
   Initial Time Step (s)            0.102

Total Number of Grid Cells         20736


 Miscellaneous Parameters

   Simulation Start Time (s)          0.0
   Simulation End Time (s)           60.0
   LES Calculation
   Eddy Viscosity:           Deardorff Model (C_DEARDORFF = 0.10)
   Near-wall Eddy Viscosity: Smagorinsky with Van Driest damping (C_SMAGORINSKY = 0.20)
   Turbulent Prandtl Number:         0.50
   Turbulent Schmidt Number:         0.50
   Ambient Temperature (C):         20.00


 Mass Fraction Transformation Matrix to Convert Species Mixtures (Columns) to Primitive Species (Rows)

                         AIR       REAC_FUE  PRODUCTS
   REAC_FUEL             0.000000  1.000000  0.000000
   NITROGEN              0.762470  0.000000  0.720736
   OXYGEN                0.230997  0.000000  0.000000
   CARBON DIOXIDE        0.000591  0.000000  0.150715
   CARBON MONOXIDE       0.000000  0.000000  0.000000
   WATER VAPOR           0.005941  0.000000  0.128549
   SOOT                  0.000000  0.000000  0.000000
   HYDROGEN              0.000000  0.000000  0.000000


 Primitive Species Information

   REAC_FUEL
   Gas Species
   Molecular Weight (g/mol)            16.04246
   Ambient Density (kg/m^3)            0.667
   Enthalpy of Formation (J/kg)       -2.42E+06

   NITROGEN
   Gas Species
   Molecular Weight (g/mol)            28.01340
   Ambient Density (kg/m^3)            1.165
   Enthalpy of Formation (J/kg)        0.00E+00

   OXYGEN
   Gas Species
   Molecular Weight (g/mol)            31.99880
   Ambient Density (kg/m^3)            1.330
   Enthalpy of Formation (J/kg)        0.00E+00

   CARBON DIOXIDE
   Gas Species
   Molecular Weight (g/mol)            44.00950
   Ambient Density (kg/m^3)            1.830
   Enthalpy of Formation (J/kg)       -8.94E+06

   CARBON MONOXIDE
   Gas Species
   Molecular Weight (g/mol)            28.01010
   Ambient Density (kg/m^3)            1.164
   Enthalpy of Formation (J/kg)       -3.95E+06

   WATER VAPOR
   Gas Species
   Molecular Weight (g/mol)            18.01528
   Ambient Density (kg/m^3)            0.749
   Enthalpy of Formation (J/kg)       -1.34E+07

   SOOT
   Gas Species
   Molecular Weight (g/mol)            10.91042
   Ambient Density (kg/m^3)            0.454
   Enthalpy of Formation (J/kg)        0.00E+00

   HYDROGEN
   Gas Species
   Molecular Weight (g/mol)             2.01588
   Ambient Density (kg/m^3)            0.084
   Enthalpy of Formation (J/kg)        0.00E+00


 Tracked (Lumped) Species Information

   AIR
   Molecular Weight (g/mol)            28.75199
   Ambient Density (kg/m^3)            1.195
   Initial Mass Fraction               1.000
   Enthalpy of Formation (J/kg)     -8.50E+04

   Sub Species                    Mass Fraction     Mole Fraction
   NITROGEN                       7.624701E-01      7.825730E-01
   OXYGEN                         2.309974E-01      2.075589E-01
   CARBON DIOXIDE                 5.914651E-04      3.864120E-04
   WATER VAPOR                    5.940984E-03      9.481679E-03
 
     Viscosity (kg/m/s) Ambient,  293 K:  1.80E-05
                                  500 K:  2.61E-05
                                 1000 K:  4.13E-05
                                 1500 K:  5.37E-05
   Therm. Cond. (W/m/K) Ambient,  293 K:  2.56E-02
                                  500 K:  3.81E-02
                                 1000 K:  6.69E-02
                                 1500 K:  9.25E-02
        Enthalpy (J/kg) Ambient,  293 K: -9.01E+04
                                  500 K:  1.22E+05
                                 1000 K:  6.72E+05
                                 1500 K:  1.27E+06
    Spec. Heat (J/kg/K) Ambient,  293 K:  1.02E+03
                                  500 K:  1.04E+03
                                 1000 K:  1.16E+03
                                 1500 K:  1.23E+03
   Diff. Coeff. (m^2/s) Ambient,  293 K:  1.99E-05
                                  500 K:  4.96E-05
                                 1000 K:  1.58E-04
                                 1500 K:  3.09E-04

   REAC_FUEL
   Molecular Weight (g/mol)            16.04246
   Ambient Density (kg/m^3)            0.667
   Initial Mass Fraction               0.000
   Enthalpy of Formation (J/kg)     -2.42E+06

   Sub Species                    Mass Fraction     Mole Fraction
   REAC_FUEL                      1.000000E+00      1.000000E+00
 
     Viscosity (kg/m/s) Ambient,  293 K:  1.32E-05
                                  500 K:  1.90E-05
                                 1000 K:  2.99E-05
                                 1500 K:  3.89E-05
   Therm. Cond. (W/m/K) Ambient,  293 K:  3.36E-02
                                  500 K:  4.86E-02
                                 1000 K:  7.63E-02
                                 1500 K:  9.93E-02
        Enthalpy (J/kg) Ambient,  293 K: -2.43E+06
                                  500 K: -2.05E+06
                                 1000 K: -1.15E+06
                                 1500 K: -2.38E+05
    Spec. Heat (J/kg/K) Ambient,  293 K:  1.81E+03
                                  500 K:  1.81E+03
                                 1000 K:  1.81E+03
                                 1500 K:  1.81E+03
   Diff. Coeff. (m^2/s) Ambient,  293 K:  2.33E-05
                                  500 K:  5.78E-05
                                 1000 K:  1.84E-04
                                 1500 K:  3.60E-04

   PRODUCTS
   Molecular Weight (g/mol)            27.55701
   Ambient Density (kg/m^3)            1.146
   Initial Mass Fraction               0.000
   Enthalpy of Formation (J/kg)     -3.07E+06

   Sub Species                    Mass Fraction     Mole Fraction
   NITROGEN                       7.207360E-01      7.089940E-01
   CARBON DIOXIDE                 1.507153E-01      9.437199E-02
   CARBON MONOXIDE                0.000000E+00      0.000000E+00
   WATER VAPOR                    1.285486E-01      1.966340E-01
   SOOT                           0.000000E+00      0.000000E+00
 
     Viscosity (kg/m/s) Ambient,  293 K:  1.60E-05
                                  500 K:  2.37E-05
                                 1000 K:  3.89E-05
                                 1500 K:  5.15E-05
   Therm. Cond. (W/m/K) Ambient,  293 K:  2.35E-02
                                  500 K:  3.62E-02
                                 1000 K:  6.76E-02
                                 1500 K:  9.76E-02
        Enthalpy (J/kg) Ambient,  293 K: -3.08E+06
                                  500 K: -2.84E+06
                                 1000 K: -2.22E+06
                                 1500 K: -1.53E+06
    Spec. Heat (J/kg/K) Ambient,  293 K:  1.12E+03
                                  500 K:  1.17E+03
                                 1000 K:  1.32E+03
                                 1500 K:  1.43E+03
   Diff. Coeff. (m^2/s) Ambient,  293 K:  1.96E-05
                                  500 K:  5.00E-05
                                 1000 K:  1.62E-04
                                 1500 K:  3.19E-04


 Gas Phase Reaction Information

   AFT NIST Multi-Floor FDS5 Validation

   Reaction ID:  METHANE

   Fuel                                           Heat of Combustion (kJ/kg)
   REAC_FUEL                                                      52259.3517

   Stoichiometry

   Primitive Species Stoich. Coeff.
   Species ID                                                          Molar
   REAC_FUEL                                                       -1.000000
   OXYGEN                                                          -2.000000
   CARBON DIOXIDE                                                   1.000000
   WATER VAPOR                                                      2.000000

   Tracked (Lumped) Species Stoich. Coeff.
   Species ID                                             Molar         Mass
   AIR                                                -9.635819   -17.269730
   REAC_FUEL                                          -1.000000    -1.000000
   PRODUCTS                                           10.635819    18.269730

   Reaction Kinetics

   Arrhenius Parameters
   Pre-exponential:    Infinite
   Activation Energy:  N/A

   ODE Solver:  EXPLICIT EULER
   Extinction Model:  EXTINCTION 2
   Auto-Ignition Temperature (K):       0.0
   Critical Flame Temperature (K):   1700.2


 Material Information


 Surface Conditions

   0 INERT (DEFAULT)

   1 Surface01
     Wall or Vent Temperature (C)   300.0
     HRR Per Unit Area (kW/m2)        400.0
     REAC_FUEL Mass Flux (kg/s/m2)   7.65E-03

   2 OPEN
     Passive Vent to Atmosphere

   3 MIRROR
     Symmetry Plane

   4 INTERPOLATED

   5 PERIODIC

   6 HVAC

   7 MASSLESS TRACER

   8 DROPLET

   9 EVACUATION_OUTFLOW
     Normal Velocity (m/s)         0.000

  10 MASSLESS TARGET

  11 PERIODIC FLOW ONLY


 Device Properties

   1 Acme Heat
     RTI (m-s)^1/2                   50.0
     Activation Temperature (C)      50.0
     Smokeview ID                heat_detector


 Device Coordinates

     1 Coords:      6.700000      0.000000      2.350000, Make: Acme Heat, ID: HD, Quantity: LINK TEMPERATURE


 Slice File Information, Mesh     1

   Sampling Interval (s)             0.060

   1 Nodes:   0  72   6   6   0  24, Quantity: TEMPERATURE
   2 Nodes:   0  72   6   6   0  24, Quantity: U-VELOCITY
   3 Nodes:   0  72   6   6   0  24, Quantity: V-VELOCITY
   4 Nodes:   0  72   6   6   0  24, Quantity: W-VELOCITY


 Radiation Model Information

   Number of control angles  104
   Time step increment         3
   Angle increment             5
   Theta band N_phi   Solid angle
     1:        4     0.120
     2:       12     0.114
     3:       16     0.127
     4:       20     0.120
     5:       20     0.120
     6:       16     0.127
     7:       12     0.114
     8:        4     0.120
   Using gray gas absorption.
   Mean beam length  0.100 m
 
 

 Run Time Diagnostics

       Time Step       1   February 19, 2021  11:46:40
       Step Size:    0.102E+00 s, Total Time:       0.10 s
       Pressure Iterations:      1
       Maximum Velocity Error:  0.19E-02 on Mesh   1 at (   3   9   1)
       Maximum Pressure Error:  0.61E-03 on Mesh   1 at (   1  12  24)
       ---------------------------------------------------------------
       Max CFL number:  0.20E-01 at (   9,  12,   2)
       Max divergence:  0.62E-02 at (   3,   5,   3)
       Min divergence: -0.11E-05 at (  66,  11,   7)
       Max VN number:   0.15E-01 at (  33,   4,  20)
       Radiation Loss to Boundaries:         0.006 kW
 
       Time Step       2   February 19, 2021  11:46:40
       Step Size:    0.102E+00 s, Total Time:       0.20 s
       Pressure Iterations:      1
       Maximum Velocity Error:  0.23E-01 on Mesh   1 at (   7   7   2)
       Maximum Pressure Error:  0.66E+00 on Mesh   1 at (   5   9   3)
       ---------------------------------------------------------------
       Max CFL number:  0.20E-01 at (   9,  12,   2)
       Max divergence:  0.83E+00 at (   3,   5,   3)
       Min divergence: -0.11E-05 at (  66,  11,   7)
       Max VN number:   0.15E-01 at (  33,   4,  20)
       Total Heat Release Rate:              6.563 kW
       Radiation Loss to Boundaries:         0.006 kW
 
       Time Step       3   February 19, 2021  11:46:40
       Step Size:    0.102E+00 s, Total Time:       0.31 s
       Pressure Iterations:      1
       Maximum Velocity Error:  0.32E-01 on Mesh   1 at (   5   8   2)
       Maximum Pressure Error:  0.35E+02 on Mesh   1 at (   3   5   3)
       ---------------------------------------------------------------
       Max CFL number:  0.14E+00 at (   4,   5,   3)
       Max divergence:  0.12E-01 at (   6,   6,   3)
       Min divergence: -0.12E-05 at (   9,   8,   2)
       Max VN number:   0.16E-01 at (   6,   8,   4)
       Radiation Loss to Boundaries:         0.004 kW
 
       Time Step       4   February 19, 2021  11:46:41
       Step Size:    0.102E+00 s, Total Time:       0.41 s
       Pressure Iterations:      4
       Maximum Velocity Error:  0.24E-01 on Mesh   1 at (   7   7   2)
       Maximum Pressure Error:  0.52E+03 on Mesh   1 at (   3   5   3)
       ---------------------------------------------------------------
       Max CFL number:  0.46E-01 at (   3,   5,   4)
       Max divergence:  0.10E+02 at (   5,   8,   3)
       Min divergence: -0.11E-05 at (  66,  11,   7)
       Max VN number:   0.16E-01 at (   8,   8,   3)
       Total Heat Release Rate:             82.879 kW
       Radiation Loss to Boundaries:        -0.696 kW
 
       Time Step       5   February 19, 2021  11:46:41
       Step Size:    0.102E+00 s, Total Time:       0.51 s
       Pressure Iterations:     10
       Maximum Velocity Error:  0.69E+00 on Mesh   1 at (   3   8   2)
       Maximum Pressure Error:  0.19E+04 on Mesh   1 at (   7   9   3)
       ---------------------------------------------------------------
       Max CFL number:  0.98E+00 at (   5,   8,   3)
       Max divergence:  0.47E+00 at (   2,   9,   3)
       Min divergence: -0.12E+01 at (   5,   8,   3)
       Max VN number:   0.20E+00 at (   8,   8,   3)
       Total Heat Release Rate:             25.108 kW
       Radiation Loss to Boundaries:       -24.718 kW
 
       Time Step       6   February 19, 2021  11:46:41
       Step Size:    0.102E+00 s, Total Time:       0.61 s
       Pressure Iterations:      9
       Maximum Velocity Error:  0.42E-01 on Mesh   1 at (   3   7   2)
       Maximum Pressure Error:  0.16E+04 on Mesh   1 at (   5   7   3)
       ---------------------------------------------------------------
       Max CFL number:  0.78E+00 at (   4,   9,   3)
       Max divergence:  0.26E+02 at (   2,   5,   3)
       Min divergence: -0.11E-05 at (  66,  11,   7)
       Max VN number:   0.41E+00 at (   2,   8,   3)
       Total Heat Release Rate:            276.799 kW
       Radiation Loss to Boundaries:       -21.206 kW
 
       Time Step       7   February 19, 2021  11:46:41
       Step Size:    0.213E-01 s, Total Time:       0.63 s
       Pressure Iterations:      8
       Maximum Velocity Error:  0.40E-01 on Mesh   1 at (   7   7   2)
       Maximum Pressure Error:  0.15E+04 on Mesh   1 at (   7   7   3)
       ---------------------------------------------------------------
       Max CFL number:  0.75E+00 at (   3,   9,   3)
       Max divergence:  0.16E+02 at (   3,   4,   3)
       Min divergence: -0.91E-01 at (   4,   7,   5)
       Max VN number:   0.28E+00 at (   3,   9,   3)
       Total Heat Release Rate:            332.278 kW
       Radiation Loss to Boundaries:      -122.566 kW
 
       Time Step       8   February 19, 2021  11:46:41
       Step Size:    0.234E-01 s, Total Time:       0.66 s
       Pressure Iterations:     10
       Maximum Velocity Error:  0.26E-01 on Mesh   1 at (   3   7   2)
       Maximum Pressure Error:  0.13E+04 on Mesh   1 at (   3   5   4)
       ---------------------------------------------------------------
       Max CFL number:  0.54E+00 at (   3,   9,   4)
       Max divergence:  0.62E+01 at (   3,   4,   4)
       Min divergence: -0.94E+01 at (   7,   5,   3)
       Max VN number:   0.14E+00 at (   3,   5,   4)
       Total Heat Release Rate:            278.164 kW
       Radiation Loss to Boundaries:      -218.143 kW
 
       Time Step       9   February 19, 2021  11:46:42
       Step Size:    0.258E-01 s, Total Time:       0.68 s
       Pressure Iterations:      8
       Maximum Velocity Error:  0.47E-01 on Mesh   1 at (   3   7   2)
       Maximum Pressure Error:  0.14E+04 on Mesh   1 at (   7   6   3)
       ---------------------------------------------------------------
       Max CFL number:  0.68E+00 at (   7,   5,   3)
       Max divergence:  0.62E+01 at (   5,   9,   3)
       Min divergence: -0.25E+01 at (   7,   5,   3)
       Max VN number:   0.78E-01 at (   8,   5,   3)
       Total Heat Release Rate:            196.505 kW
       Radiation Loss to Boundaries:       -98.347 kW
 
       Time Step      10   February 19, 2021  11:46:42
       Step Size:    0.283E-01 s, Total Time:       0.71 s
       Pressure Iterations:      6
       Maximum Velocity Error:  0.42E-01 on Mesh   1 at (   3   7   2)
       Maximum Pressure Error:  0.17E+04 on Mesh   1 at (   5   9   3)
       ---------------------------------------------------------------
       Max CFL number:  0.39E+00 at (   4,  10,   3)
       Max divergence:  0.79E+01 at (   7,   5,   3)
       Min divergence: -0.15E+01 at (   5,   6,   4)
       Max VN number:   0.17E+00 at (   7,   5,   3)
       Total Heat Release Rate:            167.588 kW
       Radiation Loss to Boundaries:       -91.461 kW
 
       Time Step      20   February 19, 2021  11:46:43
       Step Size:    0.273E-01 s, Total Time:       1.06 s
       Pressure Iterations:      4
       Maximum Velocity Error:  0.31E-01 on Mesh   1 at (   5   7   2)
       Maximum Pressure Error:  0.15E+04 on Mesh   1 at (   3   9   8)
       ---------------------------------------------------------------
       Max CFL number:  0.88E+00 at (   3,   9,   7)
       Max divergence:  0.67E+01 at (   3,   7,   3)
       Min divergence: -0.74E+00 at (   4,   8,   5)
       Max VN number:   0.36E+00 at (   3,   9,   7)
       Total Heat Release Rate:            148.082 kW
       Radiation Loss to Boundaries:       -49.232 kW
 
       Time Step      30   February 19, 2021  11:46:45
       Step Size:    0.167E-01 s, Total Time:       1.27 s
       Pressure Iterations:      2
       Maximum Velocity Error:  0.11E-01 on Mesh   1 at (   5   8   2)
       Maximum Pressure Error:  0.93E+03 on Mesh   1 at (   4   8   3)
       ---------------------------------------------------------------
       Max CFL number:  0.90E+00 at (   4,   8,   8)
       Max divergence:  0.76E+01 at (   4,   6,   3)
       Min divergence: -0.34E+01 at (   5,   7,   4)
       Max VN number:   0.24E+00 at (   3,   9,  11)
       Total Heat Release Rate:            163.049 kW
       Radiation Loss to Boundaries:       -52.331 kW
 
       Time Step      40   February 19, 2021  11:46:46
       Step Size:    0.150E-01 s, Total Time:       1.42 s
       Pressure Iterations:      1
       Maximum Velocity Error:  0.77E-02 on Mesh   1 at (   4   8   2)
       Maximum Pressure Error:  0.46E+03 on Mesh   1 at (   3   3  12)
       ---------------------------------------------------------------
       Max CFL number:  0.88E+00 at (   4,   7,   8)
       Max divergence:  0.71E+01 at (   6,   7,   3)
       Min divergence: -0.31E+01 at (   4,   7,   8)
       Max VN number:   0.26E+00 at (   3,   7,  13)
       Total Heat Release Rate:            111.344 kW
       Radiation Loss to Boundaries:       -33.319 kW
 
       Time Step      50   February 19, 2021  11:46:48
       Step Size:    0.150E-01 s, Total Time:       1.57 s
       Pressure Iterations:      2
       Maximum Velocity Error:  0.14E-01 on Mesh   1 at (   4   7   2)
       Maximum Pressure Error:  0.25E+03 on Mesh   1 at (   2   7  16)
       ---------------------------------------------------------------
       Max CFL number:  0.97E+00 at (   4,   7,  11)
       Max divergence:  0.66E+01 at (   4,   6,   3)
       Min divergence: -0.32E+01 at (   2,   7,  15)
       Max VN number:   0.30E+00 at (   3,   8,  16)
       Total Heat Release Rate:            101.469 kW
       Radiation Loss to Boundaries:       -27.259 kW
 
       Time Step      60   February 19, 2021  11:46:49
       Step Size:    0.150E-01 s, Total Time:       1.72 s
       Pressure Iterations:      1
       Maximum Velocity Error:  0.30E-01 on Mesh   1 at (   5   7   2)
       Maximum Pressure Error:  0.15E+03 on Mesh   1 at (   6   9   3)
       ---------------------------------------------------------------
       Max CFL number:  0.91E+00 at (   3,   8,  12)
       Max divergence:  0.73E+01 at (   3,   7,   3)
       Min divergence: -0.26E+01 at (   3,   8,   6)
       Max VN number:   0.28E+00 at (   2,   7,  19)
       Total Heat Release Rate:             91.454 kW
       Radiation Loss to Boundaries:       -28.784 kW
 
       Time Step      70   February 19, 2021  11:46:50
       Step Size:    0.150E-01 s, Total Time:       1.87 s
       Pressure Iterations:      1
       Maximum Velocity Error:  0.31E-01 on Mesh   1 at (   5   8   2)
       Maximum Pressure Error:  0.57E+03 on Mesh   1 at (   4   7  24)
       ---------------------------------------------------------------
       Max CFL number:  0.94E+00 at (   2,   8,  11)
       Max divergence:  0.66E+01 at (   4,   6,   3)
       Min divergence: -0.23E+01 at (   3,   8,   6)
       Max VN number:   0.66E+00 at (   4,   7,  24)
       Total Heat Release Rate:             87.326 kW
       Radiation Loss to Boundaries:       -27.038 kW
 
       Time Step      80   February 19, 2021  11:46:51
       Step Size:    0.150E-01 s, Total Time:       2.02 s
       Pressure Iterations:      1
       Maximum Velocity Error:  0.24E-01 on Mesh   1 at (   4   7   2)
       Maximum Pressure Error:  0.44E+03 on Mesh   1 at (   3   6   3)
       ---------------------------------------------------------------
       Max CFL number:  0.83E+00 at (   2,   8,  17)
       Max divergence:  0.68E+01 at (   5,   9,   3)
       Min divergence: -0.20E+01 at (   3,   8,   7)
       Max VN number:   0.43E+00 at (   2,   6,  24)
       Total Heat Release Rate:             92.015 kW
       Radiation Loss to Boundaries:       -30.726 kW
 
       Time Step      90   February 19, 2021  11:46:52
       Step Size:    0.150E-01 s, Total Time:       2.17 s
       Pressure Iterations:      1
       Maximum Velocity Error:  0.33E-01 on Mesh   1 at (   4   8   2)
       Maximum Pressure Error:  0.16E+03 on Mesh   1 at (   3   6   3)
       ---------------------------------------------------------------
       Max CFL number:  0.88E+00 at (   2,   7,  15)
       Max divergence:  0.67E+01 at (   3,   8,   3)
       Min divergence: -0.16E+01 at (   4,   7,   4)
       Max VN number:   0.42E+00 at (   1,   9,  19)
       Total Heat Release Rate:             93.101 kW
       Radiation Loss to Boundaries:       -29.280 kW
 
       Time Step     100   February 19, 2021  11:46:54
       Step Size:    0.165E-01 s, Total Time:       2.32 s
       Pressure Iterations:      1
       Maximum Velocity Error:  0.16E-01 on Mesh   1 at (   3   7   2)
       Maximum Pressure Error:  0.24E+03 on Mesh   1 at (   5   9   3)
       ---------------------------------------------------------------
       Max CFL number:  0.89E+00 at (   2,   7,  21)
       Max divergence:  0.69E+01 at (   5,   5,   3)
       Min divergence: -0.16E+01 at (   3,   7,   7)
       Max VN number:   0.49E+00 at (   2,   8,  24)
       Total Heat Release Rate:             92.762 kW
       Radiation Loss to Boundaries:       -29.378 kW
 
       Time Step     200   February 19, 2021  11:47:07
       Step Size:    0.146E-01 s, Total Time:       4.03 s
       Pressure Iterations:      1
       Maximum Velocity Error:  0.16E-01 on Mesh   1 at (   6   6   2)
       Maximum Pressure Error:  0.15E+03 on Mesh   1 at (   4   7  11)
       ---------------------------------------------------------------
       Max CFL number:  0.88E+00 at (   4,   7,  11)
       Max divergence:  0.76E+01 at (   5,   5,   3)
       Min divergence: -0.22E+01 at (   4,   7,  10)
       Max VN number:   0.36E+00 at (   4,   6,  24)
       Total Heat Release Rate:             96.454 kW
       Radiation Loss to Boundaries:       -29.652 kW
 
       Time Step     300   February 19, 2021  11:47:20
       Step Size:    0.165E-01 s, Total Time:       5.59 s
       Pressure Iterations:      1
       Maximum Velocity Error:  0.35E-01 on Mesh   1 at (   4   6   2)
       Maximum Pressure Error:  0.83E+02 on Mesh   1 at (   3   8  10)
       ---------------------------------------------------------------
       Max CFL number:  0.87E+00 at (   5,   7,  21)
       Max divergence:  0.71E+01 at (   7,   8,   3)
       Min divergence: -0.34E+01 at (   4,   6,   6)
       Max VN number:   0.44E+00 at (   4,   7,  24)
       Total Heat Release Rate:            105.963 kW
       Radiation Loss to Boundaries:       -36.224 kW
 
       Time Step     400   February 19, 2021  11:47:33
       Step Size:    0.149E-01 s, Total Time:       7.21 s
       Pressure Iterations:      1
       Maximum Velocity Error:  0.27E-01 on Mesh   1 at (   4   7   2)
       Maximum Pressure Error:  0.11E+03 on Mesh   1 at (   4   9  10)
       ---------------------------------------------------------------
       Max CFL number:  0.83E+00 at (   4,   8,   7)
       Max divergence:  0.85E+01 at (   4,   8,   3)
       Min divergence: -0.30E+01 at (   4,   7,   5)
       Max VN number:   0.32E+00 at (   1,   8,  20)
       Total Heat Release Rate:             94.864 kW
       Radiation Loss to Boundaries:       -30.766 kW
 
       Time Step     500   February 19, 2021  11:47:46
       Step Size:    0.154E-01 s, Total Time:       8.81 s
       Pressure Iterations:      1
       Maximum Velocity Error:  0.29E-01 on Mesh   1 at (   4   7   2)
       Maximum Pressure Error:  0.28E+03 on Mesh   1 at (   3   8   3)
       ---------------------------------------------------------------
       Max CFL number:  0.97E+00 at (   4,   8,  14)
       Max divergence:  0.60E+01 at (   3,   7,   3)
       Min divergence: -0.18E+01 at (   4,   8,  15)
       Max VN number:   0.29E+00 at (   2,   4,  24)
       Total Heat Release Rate:             89.152 kW
       Radiation Loss to Boundaries:       -26.419 kW
 
       Time Step     600   February 19, 2021  11:47:59
       Step Size:    0.181E-01 s, Total Time:      10.41 s
       Pressure Iterations:      2
       Maximum Velocity Error:  0.14E-01 on Mesh   1 at (   4   8   2)
       Maximum Pressure Error:  0.19E+03 on Mesh   1 at (   6   5   3)
       ---------------------------------------------------------------
       Max CFL number:  0.88E+00 at (   4,   6,  10)
       Max divergence:  0.90E+01 at (   3,   6,   3)
       Min divergence: -0.28E+01 at (   4,   6,   7)
       Max VN number:   0.44E+00 at (   4,   6,  24)
       Total Heat Release Rate:            105.574 kW
       Radiation Loss to Boundaries:       -35.090 kW
 
       Time Step     700   February 19, 2021  11:48:13
       Step Size:    0.179E-01 s, Total Time:      12.18 s
       Pressure Iterations:      1
       Maximum Velocity Error:  0.22E-01 on Mesh   1 at (   5   8   2)
       Maximum Pressure Error:  0.32E+03 on Mesh   1 at (   5   8   7)
       ---------------------------------------------------------------
       Max CFL number:  0.87E+00 at (   3,   9,  22)
       Max divergence:  0.83E+01 at (   6,   9,   3)
       Min divergence: -0.31E+01 at (   5,   8,   7)
       Max VN number:   0.42E+00 at (   3,   9,  24)
       Total Heat Release Rate:             98.834 kW
       Radiation Loss to Boundaries:       -31.792 kW
 
       Time Step     800   February 19, 2021  11:48:26
       Step Size:    0.137E-01 s, Total Time:      13.90 s
       Pressure Iterations:      2
       Maximum Velocity Error:  0.21E-01 on Mesh   1 at (   4   6   2)
       Maximum Pressure Error:  0.18E+03 on Mesh   1 at (   4   6   3)
       ---------------------------------------------------------------
       Max CFL number:  0.90E+00 at (   4,   7,  17)
       Max divergence:  0.80E+01 at (   6,   6,   3)
       Min divergence: -0.31E+01 at (   5,   6,   5)
       Max VN number:   0.23E+00 at (   1,   3,  24)
       Total Heat Release Rate:             96.541 kW
       Radiation Loss to Boundaries:       -34.088 kW
 
       Time Step     900   February 19, 2021  11:48:40
       Step Size:    0.159E-01 s, Total Time:      15.50 s
       Pressure Iterations:      1
       Maximum Velocity Error:  0.26E-01 on Mesh   1 at (   4   7   2)
       Maximum Pressure Error:  0.30E+03 on Mesh   1 at (   4   6  16)
       ---------------------------------------------------------------
       Max CFL number:  0.96E+00 at (   4,   6,  14)
       Max divergence:  0.73E+01 at (   6,   8,   3)
       Min divergence: -0.26E+01 at (   4,   7,   7)
       Max VN number:   0.40E+00 at (   4,   7,  24)
       Total Heat Release Rate:            101.629 kW
       Radiation Loss to Boundaries:       -35.092 kW
 
       Time Step    1000   February 19, 2021  11:48:54
       Step Size:    0.174E-01 s, Total Time:      17.10 s
       Pressure Iterations:      1
       Maximum Velocity Error:  0.30E-01 on Mesh   1 at (   6   7   2)
       Maximum Pressure Error:  0.11E+03 on Mesh   1 at (   3   9   3)
       ---------------------------------------------------------------
       Max CFL number:  0.93E+00 at (   3,   8,  13)
       Max divergence:  0.73E+01 at (   3,   6,   3)
       Min divergence: -0.29E+01 at (   6,   7,   4)
       Max VN number:   0.36E+00 at (   3,   6,  24)
       Total Heat Release Rate:             90.730 kW
       Radiation Loss to Boundaries:       -31.773 kW
 
       Time Step    1100   February 19, 2021  11:49:08
       Step Size:    0.184E-01 s, Total Time:      18.74 s
       Pressure Iterations:      1
       Maximum Velocity Error:  0.14E-01 on Mesh   1 at (   3   6   2)
       Maximum Pressure Error:  0.64E+02 on Mesh   1 at (   3   6   3)
       ---------------------------------------------------------------
       Max CFL number:  0.88E+00 at (   3,   7,  13)
       Max divergence:  0.67E+01 at (   5,   9,   3)
       Min divergence: -0.23E+01 at (   4,   8,   5)
       Max VN number:   0.37E+00 at (   4,  10,  24)
       Total Heat Release Rate:             84.147 kW
       Radiation Loss to Boundaries:       -25.883 kW
 
       Time Step    1200   February 19, 2021  11:49:22
       Step Size:    0.151E-01 s, Total Time:      20.51 s
       Pressure Iterations:      2
       Maximum Velocity Error:  0.13E-01 on Mesh   1 at (   4   7   2)
       Maximum Pressure Error:  0.57E+03 on Mesh   1 at (   3   9   3)
       ---------------------------------------------------------------
       Max CFL number:  0.89E+00 at (   4,   9,  18)
       Max divergence:  0.68E+01 at (   3,   9,   3)
       Min divergence: -0.28E+01 at (   5,   6,   4)
       Max VN number:   0.24E+00 at (   4,   9,  18)
       Total Heat Release Rate:             92.970 kW
       Radiation Loss to Boundaries:       -31.561 kW
 
       Time Step    1300   February 19, 2021  11:49:36
       Step Size:    0.164E-01 s, Total Time:      22.18 s
       Pressure Iterations:      1
       Maximum Velocity Error:  0.10E-01 on Mesh   1 at (   5   8   2)
       Maximum Pressure Error:  0.11E+03 on Mesh   1 at (   4   8  11)
       ---------------------------------------------------------------
       Max CFL number:  0.82E+00 at (   4,   7,  20)
       Max divergence:  0.92E+01 at (   3,   8,   3)
       Min divergence: -0.29E+01 at (   4,   7,   7)
       Max VN number:   0.45E+00 at (   3,   9,  24)
       Total Heat Release Rate:             97.947 kW
       Radiation Loss to Boundaries:       -32.914 kW
 
       Time Step    1400   February 19, 2021  11:49:50
       Step Size:    0.149E-01 s, Total Time:      23.73 s
       Pressure Iterations:      1
       Maximum Velocity Error:  0.31E-01 on Mesh   1 at (   5   5   2)
       Maximum Pressure Error:  0.10E+03 on Mesh   1 at (   4   9  19)
       ---------------------------------------------------------------
       Max CFL number:  0.93E+00 at (   4,   9,  19)
       Max divergence:  0.81E+01 at (   5,   5,   3)
       Min divergence: -0.27E+01 at (   4,   7,   6)
       Max VN number:   0.33E+00 at (   3,   8,  24)
       Total Heat Release Rate:             95.478 kW
       Radiation Loss to Boundaries:       -30.834 kW
 
       Time Step    1500   February 19, 2021  11:50:03
       Step Size:    0.179E-01 s, Total Time:      25.33 s
       Pressure Iterations:      1
       Maximum Velocity Error:  0.18E-01 on Mesh   1 at (   4   7   2)
       Maximum Pressure Error:  0.94E+02 on Mesh   1 at (   6   6   3)
       ---------------------------------------------------------------
       Max CFL number:  0.89E+00 at (   3,   7,  18)
       Max divergence:  0.90E+01 at (   6,   6,   3)
       Min divergence: -0.35E+01 at (   5,   7,   4)
       Max VN number:   0.47E+00 at (   3,   9,  24)
       Total Heat Release Rate:            100.332 kW
       Radiation Loss to Boundaries:       -33.787 kW
 
       Time Step    1600   February 19, 2021  11:50:17
       Step Size:    0.156E-01 s, Total Time:      26.94 s
       Pressure Iterations:      1
       Maximum Velocity Error:  0.24E-01 on Mesh   1 at (   3   8   2)
       Maximum Pressure Error:  0.34E+03 on Mesh   1 at (   6   5   3)
       ---------------------------------------------------------------
       Max CFL number:  0.86E+00 at (   4,   7,  20)
       Max divergence:  0.92E+01 at (   3,   6,   3)
       Min divergence: -0.24E+01 at (   3,   6,   8)
       Max VN number:   0.29E+00 at (   1,   2,  24)
       Total Heat Release Rate:             98.887 kW
       Radiation Loss to Boundaries:       -32.979 kW
 
       Time Step    1700   February 19, 2021  11:50:31
       Step Size:    0.160E-01 s, Total Time:      28.60 s
       Pressure Iterations:      1
       Maximum Velocity Error:  0.12E-01 on Mesh   1 at (   5   5   2)
       Maximum Pressure Error:  0.11E+03 on Mesh   1 at (   3   6  11)
       ---------------------------------------------------------------
       Max CFL number:  0.88E+00 at (   4,   9,  19)
       Max divergence:  0.81E+01 at (   4,   5,   3)
       Min divergence: -0.31E+01 at (   4,   7,   6)
       Max VN number:   0.29E+00 at (   3,   9,  24)
       Total Heat Release Rate:            101.092 kW
       Radiation Loss to Boundaries:       -32.990 kW
 
       Time Step    1800   February 19, 2021  11:50:44
       Step Size:    0.162E-01 s, Total Time:      30.27 s
       Pressure Iterations:      2
       Maximum Velocity Error:  0.92E-02 on Mesh   1 at (   4   6   2)
       Maximum Pressure Error:  0.33E+03 on Mesh   1 at (   4   7   6)
       ---------------------------------------------------------------
       Max CFL number:  0.86E+00 at (   5,   6,   8)
       Max divergence:  0.72E+01 at (   5,   5,   3)
       Min divergence: -0.29E+01 at (   4,   6,  10)
       Max VN number:   0.32E+00 at (   4,   7,  24)
       Total Heat Release Rate:            100.021 kW
       Radiation Loss to Boundaries:       -31.865 kW
 
       Time Step    1900   February 19, 2021  11:50:57
       Step Size:    0.146E-01 s, Total Time:      31.81 s
       Pressure Iterations:      1
       Maximum Velocity Error:  0.13E-01 on Mesh   1 at (   7   6   2)
       Maximum Pressure Error:  0.97E+02 on Mesh   1 at (   4   7  10)
       ---------------------------------------------------------------
       Max CFL number:  0.91E+00 at (   4,   8,  19)
       Max divergence:  0.68E+01 at (   3,   9,   3)
       Min divergence: -0.25E+01 at (   4,   7,  12)
       Max VN number:   0.27E+00 at (   4,   8,  19)
       Total Heat Release Rate:            100.881 kW
       Radiation Loss to Boundaries:       -33.041 kW
 
       Time Step    2000   February 19, 2021  11:51:10
       Step Size:    0.166E-01 s, Total Time:      33.37 s
       Pressure Iterations:      2
       Maximum Velocity Error:  0.89E-02 on Mesh   1 at (   4   7   2)
       Maximum Pressure Error:  0.31E+03 on Mesh   1 at (   4   7   9)
       ---------------------------------------------------------------
       Max CFL number:  0.99E+00 at (   4,   7,   8)
       Max divergence:  0.77E+01 at (   5,   6,   3)
       Min divergence: -0.36E+01 at (   4,   7,   5)
       Max VN number:   0.33E+00 at (   3,  10,  24)
       Total Heat Release Rate:             99.891 kW
       Radiation Loss to Boundaries:       -33.736 kW
 
       Time Step    2100   February 19, 2021  11:51:22
       Step Size:    0.166E-01 s, Total Time:      34.95 s
       Pressure Iterations:      2
       Maximum Velocity Error:  0.17E-01 on Mesh   1 at (   3   6   2)
       Maximum Pressure Error:  0.35E+03 on Mesh   1 at (   3   5   3)
       ---------------------------------------------------------------
       Max CFL number:  0.80E+00 at (   3,   7,  17)
       Max divergence:  0.11E+02 at (   3,   6,   3)
       Min divergence: -0.24E+01 at (   4,   6,   4)
       Max VN number:   0.33E+00 at (   2,   4,  24)
       Total Heat Release Rate:             96.106 kW
       Radiation Loss to Boundaries:       -32.706 kW
 
       Time Step    2200   February 19, 2021  11:51:35
       Step Size:    0.183E-01 s, Total Time:      36.71 s
       Pressure Iterations:      2
       Maximum Velocity Error:  0.15E-01 on Mesh   1 at (   4   6   2)
       Maximum Pressure Error:  0.25E+03 on Mesh   1 at (   5   9   3)
       ---------------------------------------------------------------
       Max CFL number:  0.84E+00 at (   2,   9,  19)
       Max divergence:  0.78E+01 at (   4,   9,   3)
       Min divergence: -0.26E+01 at (   5,   7,   5)
       Max VN number:   0.32E+00 at (   4,   7,  24)
       Total Heat Release Rate:            103.976 kW
       Radiation Loss to Boundaries:       -35.678 kW
 
       Time Step    2300   February 19, 2021  11:51:48
       Step Size:    0.186E-01 s, Total Time:      38.42 s
       Pressure Iterations:      2
       Maximum Velocity Error:  0.21E-01 on Mesh   1 at (   5   8   2)
       Maximum Pressure Error:  0.15E+03 on Mesh   1 at (   5   7   5)
       ---------------------------------------------------------------
       Max CFL number:  0.83E+00 at (   2,   6,  21)
       Max divergence:  0.69E+01 at (   4,   5,   3)
       Min divergence: -0.58E+01 at (   5,   7,   5)
       Max VN number:   0.42E+00 at (   3,   6,  24)
       Total Heat Release Rate:             99.572 kW
       Radiation Loss to Boundaries:       -34.933 kW
 
       Time Step    2400   February 19, 2021  11:52:02
       Step Size:    0.175E-01 s, Total Time:      40.21 s
       Pressure Iterations:      2
       Maximum Velocity Error:  0.13E-01 on Mesh   1 at (   5   9   2)
       Maximum Pressure Error:  0.17E+03 on Mesh   1 at (   4   4   8)
       ---------------------------------------------------------------
       Max CFL number:  0.90E+00 at (   4,   8,  11)
       Max divergence:  0.74E+01 at (   3,   7,   3)
       Min divergence: -0.45E+01 at (   3,   7,   6)
       Max VN number:   0.31E+00 at (   5,   5,  24)
       Total Heat Release Rate:            112.733 kW
       Radiation Loss to Boundaries:       -39.123 kW
 
       Time Step    2500   February 19, 2021  11:52:16
       Step Size:    0.183E-01 s, Total Time:      41.91 s
       Pressure Iterations:      2
       Maximum Velocity Error:  0.15E-01 on Mesh   1 at (   4   7   2)
       Maximum Pressure Error:  0.52E+03 on Mesh   1 at (   3   6   3)
       ---------------------------------------------------------------
       Max CFL number:  0.95E+00 at (   3,   7,  14)
       Max divergence:  0.13E+02 at (   3,   6,   3)
       Min divergence: -0.26E+01 at (   5,   8,   4)
       Max VN number:   0.35E+00 at (   2,   6,  24)
       Total Heat Release Rate:             98.802 kW
       Radiation Loss to Boundaries:       -31.350 kW
 
       Time Step    2600   February 19, 2021  11:52:30
       Step Size:    0.170E-01 s, Total Time:      43.63 s
       Pressure Iterations:      2
       Maximum Velocity Error:  0.14E-01 on Mesh   1 at (   4   6   2)
       Maximum Pressure Error:  0.36E+03 on Mesh   1 at (   4   9   4)
       ---------------------------------------------------------------
       Max CFL number:  0.86E+00 at (   3,   8,  15)
       Max divergence:  0.77E+01 at (   4,   8,   3)
       Min divergence: -0.51E+01 at (   4,   9,   6)
       Max VN number:   0.33E+00 at (   2,   5,  24)
       Total Heat Release Rate:            102.980 kW
       Radiation Loss to Boundaries:       -35.633 kW
 
       Time Step    2700   February 19, 2021  11:52:43
       Step Size:    0.178E-01 s, Total Time:      45.33 s
       Pressure Iterations:      1
       Maximum Velocity Error:  0.34E-01 on Mesh   1 at (   5   9   2)
       Maximum Pressure Error:  0.83E+02 on Mesh   1 at (   5   5   3)
       ---------------------------------------------------------------
       Max CFL number:  0.93E+00 at (   4,   6,  10)
       Max divergence:  0.83E+01 at (   4,   9,   3)
       Min divergence: -0.24E+01 at (   4,   6,  10)
       Max VN number:   0.33E+00 at (   3,   5,  24)
       Total Heat Release Rate:            103.105 kW
       Radiation Loss to Boundaries:       -34.761 kW
 
       Time Step    2800   February 19, 2021  11:52:56
       Step Size:    0.173E-01 s, Total Time:      47.02 s
       Pressure Iterations:      2
       Maximum Velocity Error:  0.11E-01 on Mesh   1 at (   5   7   2)
       Maximum Pressure Error:  0.13E+03 on Mesh   1 at (   3   6  11)
       ---------------------------------------------------------------
       Max CFL number:  0.87E+00 at (   3,   6,  10)
       Max divergence:  0.72E+01 at (   6,   9,   3)
       Min divergence: -0.26E+01 at (   4,   7,   7)
       Max VN number:   0.37E+00 at (   3,   4,  24)
       Total Heat Release Rate:             92.585 kW
       Radiation Loss to Boundaries:       -30.332 kW
 
       Time Step    2900   February 19, 2021  11:53:09
       Step Size:    0.171E-01 s, Total Time:      48.70 s
       Pressure Iterations:      1
       Maximum Velocity Error:  0.41E-01 on Mesh   1 at (   4   8   2)
       Maximum Pressure Error:  0.12E+03 on Mesh   1 at (   4   8   3)
       ---------------------------------------------------------------
       Max CFL number:  0.90E+00 at (   3,   7,  10)
       Max divergence:  0.73E+01 at (   4,   9,   3)
       Min divergence: -0.24E+01 at (   4,   6,   4)
       Max VN number:   0.36E+00 at (   4,   6,  24)
       Total Heat Release Rate:            113.433 kW
       Radiation Loss to Boundaries:       -39.131 kW
 
       Time Step    3000   February 19, 2021  11:53:22
       Step Size:    0.182E-01 s, Total Time:      50.37 s
       Pressure Iterations:      1
       Maximum Velocity Error:  0.13E-01 on Mesh   1 at (   5   7   2)
       Maximum Pressure Error:  0.63E+02 on Mesh   1 at (   6   5   3)
       ---------------------------------------------------------------
       Max CFL number:  0.93E+00 at (   3,   8,  15)
       Max divergence:  0.75E+01 at (   5,   5,   3)
       Min divergence: -0.32E+01 at (   4,   8,   9)
       Max VN number:   0.44E+00 at (   1,   1,  24)
       Total Heat Release Rate:             96.617 kW
       Radiation Loss to Boundaries:       -31.043 kW
 
       Time Step    3100   February 19, 2021  11:53:35
       Step Size:    0.164E-01 s, Total Time:      52.02 s
       Pressure Iterations:      2
       Maximum Velocity Error:  0.20E-01 on Mesh   1 at (   4   7   2)
       Maximum Pressure Error:  0.30E+03 on Mesh   1 at (   6   9   3)
       ---------------------------------------------------------------
       Max CFL number:  0.88E+00 at (   5,   8,  16)
       Max divergence:  0.86E+01 at (   3,   7,   3)
       Min divergence: -0.40E+01 at (   4,   8,   6)
       Max VN number:   0.42E+00 at (   2,   6,  24)
       Total Heat Release Rate:             95.924 kW
       Radiation Loss to Boundaries:       -31.987 kW
 
       Time Step    3200   February 19, 2021  11:53:48
       Step Size:    0.171E-01 s, Total Time:      53.67 s
       Pressure Iterations:      2
       Maximum Velocity Error:  0.29E-01 on Mesh   1 at (   3   6   2)
       Maximum Pressure Error:  0.33E+03 on Mesh   1 at (   5   6   3)
       ---------------------------------------------------------------
       Max CFL number:  0.93E+00 at (   3,   7,  18)
       Max divergence:  0.83E+01 at (   3,   6,   3)
       Min divergence: -0.21E+01 at (   3,   6,   7)
       Max VN number:   0.36E+00 at (   3,   8,  24)
       Total Heat Release Rate:             88.661 kW
       Radiation Loss to Boundaries:       -28.521 kW
 
       Time Step    3300   February 19, 2021  11:54:01
       Step Size:    0.169E-01 s, Total Time:      55.34 s
       Pressure Iterations:      1
       Maximum Velocity Error:  0.24E-01 on Mesh   1 at (   4   6   2)
       Maximum Pressure Error:  0.20E+03 on Mesh   1 at (   5   6   3)
       ---------------------------------------------------------------
       Max CFL number:  0.94E+00 at (   3,   6,  11)
       Max divergence:  0.72E+01 at (   5,   5,   3)
       Min divergence: -0.22E+01 at (   4,   6,   9)
       Max VN number:   0.36E+00 at (   4,   6,  24)
       Total Heat Release Rate:            118.717 kW
       Radiation Loss to Boundaries:       -38.533 kW
 
       Time Step    3400   February 19, 2021  11:54:13
       Step Size:    0.199E-01 s, Total Time:      57.03 s
       Pressure Iterations:      1
       Maximum Velocity Error:  0.49E-01 on Mesh   1 at (   4   7   2)
       Maximum Pressure Error:  0.88E+03 on Mesh   1 at (   5   9   3)
       ---------------------------------------------------------------
       Max CFL number:  0.95E+00 at (   4,   7,   9)
       Max divergence:  0.88E+01 at (   3,   7,   3)
       Min divergence: -0.35E+01 at (   3,   7,  10)
       Max VN number:   0.38E+00 at (   3,   1,  24)
       Total Heat Release Rate:            108.788 kW
       Radiation Loss to Boundaries:       -36.109 kW
 
       Time Step    3500   February 19, 2021  11:54:26
       Step Size:    0.150E-01 s, Total Time:      58.67 s
       Pressure Iterations:      2
       Maximum Velocity Error:  0.19E-01 on Mesh   1 at (   4   9   2)
       Maximum Pressure Error:  0.11E+04 on Mesh   1 at (   6   8   3)
       ---------------------------------------------------------------
       Max CFL number:  0.83E+00 at (   3,   6,  16)
       Max divergence:  0.74E+01 at (   3,   6,   3)
       Min divergence: -0.24E+01 at (   3,   6,   8)
       Max VN number:   0.35E+00 at (   6,   7,  24)
       Total Heat Release Rate:            113.733 kW
       Radiation Loss to Boundaries:       -40.224 kW
 
       Time Step    3584   February 19, 2021  11:54:38
       Step Size:    0.138E-01 s, Total Time:      60.00 s
       Pressure Iterations:      2
       Maximum Velocity Error:  0.14E-01 on Mesh   1 at (   4   7   2)
       Maximum Pressure Error:  0.98E+03 on Mesh   1 at (   4   8   3)
       ---------------------------------------------------------------
       Max CFL number:  0.71E+00 at (   3,   7,  17)
       Max divergence:  0.81E+01 at (   5,   5,   3)
       Min divergence: -0.26E+01 at (   4,   6,   5)
       Max VN number:   0.37E+00 at (   3,   5,  24)
       Total Heat Release Rate:            103.854 kW
       Radiation Loss to Boundaries:       -33.913 kW
 


 DEVICE Activation Times

   1  HD                                                              37.7 s


 Time Stepping Wall Clock Time (s):      477.730
 Total Elapsed Wall Clock Time (s):      480.771

STOP: FDS completed successfully (CHID: meshres)
