
 Fire Dynamics Simulator

 Current Date     : February 21, 2021  19:57:32
 Revision         : FDS6.7.0-0-g5ccea76-master
 Revision Date    : Mon Jun 25 13:03:23 2018 -0400
 Compiler         : Intel ifort 18.0.2.185
 Compilation Date : Tue 06/26/2018  10:49 AM

 MPI Enabled;    Number of MPI Processes:       1
 OpenMP Enabled; Number of OpenMP Threads:      3

 MPI version: 3.1
 MPI library version: Intel(R) MPI Library 2018 Update 2 for Windows* OS


 Job TITLE        : Test BURN_AWAY feature
 Job ID string    : burn_away_example


 Grid Dimensions, Mesh     1

   Cells in the X Direction            20
   Cells in the Y Direction            20
   Cells in the Z Direction            20


 Physical Dimensions, Mesh     1

   Length (m)                       1.000
   Width  (m)                       1.000
   Height (m)                       1.000
   Initial Time Step (s)            0.079


 Miscellaneous Parameters

   Simulation Start Time (s)          0.0
   Simulation End Time (s)           30.0
   LES Calculation
   Eddy Viscosity:           Deardorff Model (C_DEARDORFF)                          0.10
   Near-wall Eddy Viscosity: Smagorinsky with Van Driest damping (C_SMAGORINSKY)    0.20
   Turbulent Prandtl Number          0.50
   Turbulent Schmidt Number          0.50
   Ambient Temperature (C)          20.00


 Mass Fraction Transformation Matrix to Convert Species Mixtures (Columns) to Primitive Species (Rows)

                         AIR       N-HEPTAN  PRODUCTS
   N-HEPTANE             0.000000  1.000000  0.000000
   NITROGEN              0.763077  0.000000  0.714188
   OXYGEN                0.231181  0.000000  0.000000
   CARBON DIOXIDE        0.000592  0.000000  0.185902
   CARBON MONOXIDE       0.000000  0.000000  0.000000
   WATER VAPOR           0.005149  0.000000  0.096707
   SOOT                  0.000000  0.000000  0.003203
   HYDROGEN              0.000000  0.000000  0.000000


 Primitive Species Information

   N-HEPTANE
   Gas Species
   Molecular Weight (g/mol)           100.20194
   Ambient Density (kg/m^3)            4.166
   Enthalpy of Formation (J/kg)       -1.87E+06

   NITROGEN
   Gas Species
   Molecular Weight (g/mol)            28.01340
   Ambient Density (kg/m^3)            1.165
   Enthalpy of Formation (J/kg)        0.00E+00

   OXYGEN
   Gas Species
   Molecular Weight (g/mol)            31.99880
   Ambient Density (kg/m^3)            1.330
   Enthalpy of Formation (J/kg)        0.00E+00

   CARBON DIOXIDE
   Gas Species
   Molecular Weight (g/mol)            44.00950
   Ambient Density (kg/m^3)            1.830
   Enthalpy of Formation (J/kg)       -8.94E+06

   CARBON MONOXIDE
   Gas Species
   Molecular Weight (g/mol)            28.01010
   Ambient Density (kg/m^3)            1.164
   Enthalpy of Formation (J/kg)       -3.95E+06

   WATER VAPOR
   Gas Species
   Molecular Weight (g/mol)            18.01528
   Ambient Density (kg/m^3)            0.749
   Enthalpy of Formation (J/kg)       -1.34E+07

   SOOT
   Gas Species
   Molecular Weight (g/mol)            10.91042
   Ambient Density (kg/m^3)            0.454
   Enthalpy of Formation (J/kg)        0.00E+00

   HYDROGEN
   Gas Species
   Molecular Weight (g/mol)             2.01588
   Ambient Density (kg/m^3)            0.084
   Enthalpy of Formation (J/kg)        0.00E+00


 Tracked (Lumped) Species Information

   AIR
   Molecular Weight (g/mol)            28.76564
   Ambient Density (kg/m^3)            1.196
   Initial Mass Fraction               1.000
   Enthalpy of Formation (J/kg)     -7.44E+04

   Sub Species                    Mass Fraction     Mole Fraction
   NITROGEN                       7.630774E-01      7.835682E-01
   OXYGEN                         2.311814E-01      2.078229E-01
   CARBON DIOXIDE                 5.919362E-04      3.869034E-04
   WATER VAPOR                    5.149269E-03      8.222023E-03
 
     Viscosity (kg/m/s) Ambient,  293 K:  1.80E-05
                                  500 K:  2.61E-05
                                 1000 K:  4.13E-05
                                 1500 K:  5.37E-05
   Therm. Cond. (W/m/K) Ambient,  293 K:  2.56E-02
                                  500 K:  3.81E-02
                                 1000 K:  6.68E-02
                                 1500 K:  9.24E-02
        Enthalpy (J/kg) Ambient,  293 K: -7.97E+04
                                  500 K:  1.33E+05
                                 1000 K:  6.82E+05
                                 1500 K:  1.28E+06
    Spec. Heat (J/kg/K) Ambient,  293 K:  1.02E+03
                                  500 K:  1.04E+03
                                 1000 K:  1.16E+03
                                 1500 K:  1.23E+03
   Diff. Coeff. (m^2/s) Ambient,  293 K:  1.99E-05
                                  500 K:  4.96E-05
                                 1000 K:  1.58E-04
                                 1500 K:  3.09E-04

   N-HEPTANE
   Molecular Weight (g/mol)           100.20194
   Ambient Density (kg/m^3)            4.166
   Initial Mass Fraction               0.000
   Enthalpy of Formation (J/kg)     -1.87E+06

   Sub Species                    Mass Fraction     Mole Fraction
   N-HEPTANE                      1.000000E+00      1.000000E+00
 
     Viscosity (kg/m/s) Ambient,  293 K:  1.54E-05
                                  500 K:  2.45E-05
                                 1000 K:  4.11E-05
                                 1500 K:  5.41E-05
   Therm. Cond. (W/m/K) Ambient,  293 K:  3.02E-02
                                  500 K:  7.42E-02
                                 1000 K:  1.89E-01
                                 1500 K:  2.89E-01
        Enthalpy (J/kg) Ambient,  293 K: -1.88E+06
                                  500 K: -1.45E+06
                                 1000 K:  1.74E+05
                                 1500 K:  2.25E+06
    Spec. Heat (J/kg/K) Ambient,  293 K:  1.63E+03
                                  500 K:  2.52E+03
                                 1000 K:  3.81E+03
                                 1500 K:  4.43E+03
   Diff. Coeff. (m^2/s) Ambient,  293 K:  1.10E-05
                                  500 K:  2.83E-05
                                 1000 K:  9.18E-05
                                 1500 K:  1.80E-04

   PRODUCTS
   Molecular Weight (g/mol)            28.26432
   Ambient Density (kg/m^3)            1.175
   Initial Mass Fraction               0.000
   Enthalpy of Formation (J/kg)     -2.96E+06

   Sub Species                    Mass Fraction     Mole Fraction
   NITROGEN                       7.141876E-01      7.205848E-01
   CARBON DIOXIDE                 1.859022E-01      1.193924E-01
   CARBON MONOXIDE                0.000000E+00      0.000000E+00
   WATER VAPOR                    9.670669E-02      1.517239E-01
   SOOT                           3.203458E-03      8.298813E-03
 
     Viscosity (kg/m/s) Ambient,  293 K:  1.61E-05
                                  500 K:  2.39E-05
                                 1000 K:  3.89E-05
                                 1500 K:  5.14E-05
   Therm. Cond. (W/m/K) Ambient,  293 K:  2.34E-02
                                  500 K:  3.62E-02
                                 1000 K:  6.71E-02
                                 1500 K:  9.60E-02
        Enthalpy (J/kg) Ambient,  293 K: -2.97E+06
                                  500 K: -2.74E+06
                                 1000 K: -2.13E+06
                                 1500 K: -1.46E+06
    Spec. Heat (J/kg/K) Ambient,  293 K:  1.08E+03
                                  500 K:  1.14E+03
                                 1000 K:  1.29E+03
                                 1500 K:  1.40E+03
   Diff. Coeff. (m^2/s) Ambient,  293 K:  1.95E-05
                                  500 K:  4.95E-05
                                 1000 K:  1.60E-04
                                 1500 K:  3.14E-04


 Gas Phase Reaction Information

   Fuel                                           Heat of Combustion (kJ/kg)
   N-HEPTANE                                                      43244.8199

   Stoichiometry

   Primitive Species Stoich. Coeff.
   Species ID                                                          Molar
   N-HEPTANE                                                       -1.000000
   NITROGEN                                                        -0.000000
   OXYGEN                                                         -10.575237
   CARBON DIOXIDE                                                   6.586718
   WATER VAPOR                                                      7.977040
   SOOT                                                             0.459203

   Tracked (Lumped) Species Stoich. Coeff.
   Species ID                                             Molar         Mass
   AIR                                               -50.885825   -14.608134
   N-HEPTANE                                          -1.000000    -1.000000
   PRODUCTS                                           55.333548    15.608134

   Reaction Kinetics

   Arrhenius Parameters
   Pre-exponential:    Infinite
   Activation Energy:  N/A

   ODE Solver:  EXPLICIT EULER
   Extinction Model:  EXTINCTION 2
   Ignition Temperature (K):            0.0
   Critical Flame Temperature (K):   1770.2


 Material Information

   1 FOAM                                                        
     Emissivity                      0.900
     Density (kg/m3)                  20.0
     Specific Heat (kJ/kg/K)      1.00E+00
     Conductivity (W/m/K)           0.2000


 Surface Conditions

   0 INERT (DEFAULT)

   1 FOAM SLAB
     Material List
          1  FOAM
     Layer  1
        Thickness   (m):  0.10000
        Density (kg/m3):    20.00
        FOAM, Mass fraction:    1.00
     Total surface density     2.000 kg/m2
     Reaction products considered from the first  0.50 layers.
     Solid Phase Node, Layer, Coordinates(m):
                    0      1       0.0000000
                    1      1       0.0021739
                    2      1       0.0065217
                    3      1       0.0152174
                    4      1       0.0326087
                    5      1       0.0673913
                    6      1       0.0847826
                    7      1       0.0934783
                    8      1       0.0978261
                    9      1       0.1000000
     Exposed Backing
     HRR Per Unit Area (kW/m2)       4000.0
     N-HEPTANE Mass Flux (kg/s/m2)   9.25E-02

   2 OPEN
     Passive Vent to Atmosphere

   3 MIRROR
     Symmetry Plane

   4 INTERPOLATED

   5 PERIODIC

   6 HVAC

   7 MASSLESS TRACER

   8 DROPLET

   9 VEGETATION

  10 EVACUATION_OUTFLOW
     Normal Velocity (m/s)         0.000

  11 MASSLESS TARGET

  12 PERIODIC WIND


 Boundary File Information

   Sampling Interval (s)             0.060

   1 Quantity: WALL TEMPERATURE


 Radiation Model Information

   Number of control angles  104
   Time step increment         3
   Angle increment             5
   Theta band N_phi   Solid angle
     1:        4  0.12
     2:       12  0.11
     3:       16  0.13
     4:       20  0.12
     5:       20  0.12
     6:       16  0.13
     7:       12  0.11
     8:        4  0.12
   Using gray gas absorption.
   Mean beam length  0.100 m
 
 

 Run Time Diagnostics

       Time Step       1   February 21, 2021  19:57:32
       Step Size:    0.791E-01 s, Total Time:       0.08 s
       Pressure Iterations:      3
       Maximum Velocity Error:  0.10E-01 on Mesh   1 at (   7   9   3)
       Maximum Pressure Error:  0.52E-01 on Mesh   1 at (   7   7  10)
       ---------------------------------------------------------------
       Max CFL number:  0.29E-01 at (  14,   5,  12)
       Max divergence:  0.80E+01 at (   7,   6,   5)
       Min divergence: -0.22E-03 at (   7,  15,  11)
       Max VN number:   0.26E-01 at (   6,   3,   7)
       Total Heat Release Rate:             86.887 kW
 
       Time Step       2   February 21, 2021  19:57:32
       Step Size:    0.791E-01 s, Total Time:       0.16 s
       Pressure Iterations:      4
       Maximum Velocity Error:  0.12E-01 on Mesh   1 at (   7  11  10)
       Maximum Pressure Error:  0.31E+04 on Mesh   1 at (  12   6  10)
       ---------------------------------------------------------------
       Max CFL number:  0.78E+00 at (   9,  15,   9)
       Max divergence:  0.27E+02 at (   8,  12,   2)
       Min divergence: -0.43E+00 at (  16,   9,   6)
       Max VN number:   0.79E-01 at (   6,  15,   9)
       Total Heat Release Rate:            287.790 kW
       Radiation Loss to Boundaries:        -6.256 kW
 
       Time Step       3   February 21, 2021  19:57:32
       Step Size:    0.210E-01 s, Total Time:       0.18 s
       Pressure Iterations:      4
       Maximum Velocity Error:  0.14E-01 on Mesh   1 at (   7  11  10)
       Maximum Pressure Error:  0.42E+04 on Mesh   1 at (  12   6  10)
       ---------------------------------------------------------------
       Max CFL number:  0.83E+00 at (  11,  10,   2)
       Max divergence:  0.25E+02 at (   9,   8,   2)
       Min divergence: -0.59E+01 at (  11,  10,   1)
       Max VN number:   0.18E+00 at (   7,   9,   2)
       Total Heat Release Rate:            436.502 kW
       Radiation Loss to Boundaries:       -62.997 kW
 
       Time Step       4   February 21, 2021  19:57:32
       Step Size:    0.210E-01 s, Total Time:       0.20 s
       Pressure Iterations:      6
       Maximum Velocity Error:  0.23E-01 on Mesh   1 at (  11   7   3)
       Maximum Pressure Error:  0.46E+04 on Mesh   1 at (  10  11  11)
       ---------------------------------------------------------------
       Max CFL number:  0.60E+00 at (  10,  10,  11)
       Max divergence:  0.13E+02 at (  15,  12,   3)
       Min divergence: -0.30E+02 at (  10,   9,   2)
       Max VN number:   0.15E+00 at (  12,   6,  11)
       Total Heat Release Rate:            421.172 kW
       Radiation Loss to Boundaries:      -461.570 kW
 
       Time Step       5   February 21, 2021  19:57:32
       Step Size:    0.136E-01 s, Total Time:       0.21 s
       Pressure Iterations:      5
       Maximum Velocity Error:  0.22E-01 on Mesh   1 at (  11   7   3)
       Maximum Pressure Error:  0.45E+04 on Mesh   1 at (  10  11   2)
       ---------------------------------------------------------------
       Max CFL number:  0.85E+00 at (  10,   9,   2)
       Max divergence:  0.27E+02 at (  10,   9,   2)
       Min divergence: -0.21E+01 at (  11,  10,  12)
       Max VN number:   0.63E-01 at (  10,   7,   1)
       Total Heat Release Rate:            444.963 kW
       Radiation Loss to Boundaries:      -279.024 kW
 
       Time Step       6   February 21, 2021  19:57:32
       Step Size:    0.136E-01 s, Total Time:       0.23 s
       Pressure Iterations:      5
       Maximum Velocity Error:  0.21E-01 on Mesh   1 at (  14  10   3)
       Maximum Pressure Error:  0.53E+04 on Mesh   1 at (  12   9  11)
       ---------------------------------------------------------------
       Max CFL number:  0.60E+00 at (  10,  10,   2)
       Max divergence:  0.12E+02 at (  15,  10,   2)
       Min divergence: -0.51E+01 at (  12,  10,   1)
       Max VN number:   0.11E+00 at (   6,  11,   2)
       Total Heat Release Rate:            387.170 kW
       Radiation Loss to Boundaries:      -329.164 kW
 
       Time Step       7   February 21, 2021  19:57:32
       Step Size:    0.150E-01 s, Total Time:       0.24 s
       Pressure Iterations:      3
       Maximum Velocity Error:  0.21E-01 on Mesh   1 at (  14  10   3)
       Maximum Pressure Error:  0.29E+04 on Mesh   1 at (   7  14  10)
       ---------------------------------------------------------------
       Max CFL number:  0.61E+00 at (  11,  15,   3)
       Max divergence:  0.11E+02 at (  14,  14,   2)
       Min divergence: -0.21E+01 at (  10,  11,   2)
       Max VN number:   0.12E+00 at (  12,   6,  11)
       Total Heat Release Rate:            250.025 kW
       Radiation Loss to Boundaries:      -160.592 kW
 
       Time Step       8   February 21, 2021  19:57:32
       Step Size:    0.165E-01 s, Total Time:       0.26 s
       Pressure Iterations:      3
       Maximum Velocity Error:  0.13E-01 on Mesh   1 at (  11   7   3)
       Maximum Pressure Error:  0.43E+03 on Mesh   1 at (  14  14  10)
       ---------------------------------------------------------------
       Max CFL number:  0.70E+00 at (   7,   6,   4)
       Max divergence:  0.85E+01 at (  15,   7,   3)
       Min divergence: -0.16E+01 at (  11,  11,  12)
       Max VN number:   0.14E+00 at (  12,   6,  11)
       Total Heat Release Rate:            170.184 kW
       Radiation Loss to Boundaries:       -83.423 kW
 
       Time Step       9   February 21, 2021  19:57:32
       Step Size:    0.181E-01 s, Total Time:       0.28 s
       Pressure Iterations:      3
       Maximum Velocity Error:  0.12E-01 on Mesh   1 at (  14  11   3)
       Maximum Pressure Error:  0.12E+04 on Mesh   1 at (  12   6  12)
       ---------------------------------------------------------------
       Max CFL number:  0.85E+00 at (  15,   7,   5)
       Max divergence:  0.11E+02 at (   7,   7,   2)
       Min divergence: -0.24E+01 at (  15,   7,   5)
       Max VN number:   0.17E+00 at (  12,   6,  11)
       Total Heat Release Rate:            171.380 kW
       Radiation Loss to Boundaries:       -69.422 kW
 
       Time Step      10   February 21, 2021  19:57:32
       Step Size:    0.181E-01 s, Total Time:       0.30 s
       Pressure Iterations:      3
       Maximum Velocity Error:  0.90E-02 on Mesh   1 at (  14  11   3)
       Maximum Pressure Error:  0.21E+04 on Mesh   1 at (  12   6  12)
       ---------------------------------------------------------------
       Max CFL number:  0.91E+00 at (  15,   7,   7)
       Max divergence:  0.17E+02 at (   7,  15,  12)
       Min divergence: -0.12E+01 at (  14,  15,   5)
       Max VN number:   0.22E+00 at (   6,  11,  11)
       Total Heat Release Rate:            212.155 kW
       Radiation Loss to Boundaries:       -81.528 kW
 
       Time Step      20   February 21, 2021  19:57:33
       Step Size:    0.105E-01 s, Total Time:       0.43 s
       Pressure Iterations:      3
       Maximum Velocity Error:  0.15E-01 on Mesh   1 at (   7   9   6)
       Maximum Pressure Error:  0.28E+04 on Mesh   1 at (  15   9  16)
       ---------------------------------------------------------------
       Max CFL number:  0.92E+00 at (   6,   7,   9)
       Max divergence:  0.34E+02 at (   7,  14,   2)
       Min divergence: -0.57E+01 at (   9,   6,   3)
       Max VN number:   0.30E+00 at (   7,   7,  13)
       Total Heat Release Rate:            446.232 kW
       Radiation Loss to Boundaries:      -187.952 kW
 
       Time Step      30   February 21, 2021  19:57:33
       Step Size:    0.770E-02 s, Total Time:       0.51 s
       Pressure Iterations:      3
       Maximum Velocity Error:  0.25E-01 on Mesh   1 at (  14  14   9)
       Maximum Pressure Error:  0.36E+04 on Mesh   1 at (   7   6  12)
       ---------------------------------------------------------------
       Max CFL number:  0.89E+00 at (   6,  14,  12)
       Max divergence:  0.38E+02 at (   8,  14,   2)
       Min divergence: -0.66E+01 at (   6,   8,   3)
       Max VN number:   0.26E+00 at (   7,   7,  15)
       Total Heat Release Rate:            698.107 kW
       Radiation Loss to Boundaries:      -286.194 kW
 
       Time Step      40   February 21, 2021  19:57:34
       Step Size:    0.658E-02 s, Total Time:       0.58 s
       Pressure Iterations:      3
       Maximum Velocity Error:  0.19E-01 on Mesh   1 at (  12   7  10)
       Maximum Pressure Error:  0.19E+04 on Mesh   1 at (  15   6  11)
       ---------------------------------------------------------------
       Max CFL number:  0.84E+00 at (  11,   6,  14)
       Max divergence:  0.45E+02 at (  12,  14,   2)
       Min divergence: -0.55E+01 at (   9,  17,   3)
       Max VN number:   0.29E+00 at (  12,  15,   2)
       Total Heat Release Rate:            840.239 kW
       Radiation Loss to Boundaries:      -351.735 kW
 
       Time Step      50   February 21, 2021  19:57:34
       Step Size:    0.658E-02 s, Total Time:       0.64 s
       Pressure Iterations:      3
       Maximum Velocity Error:  0.69E-02 on Mesh   1 at (   7   9  10)
       Maximum Pressure Error:  0.16E+04 on Mesh   1 at (   6  15  13)
       ---------------------------------------------------------------
       Max CFL number:  0.92E+00 at (  10,  10,   1)
       Max divergence:  0.35E+02 at (  10,  11,   1)
       Min divergence: -0.79E+01 at (   4,  11,   3)
       Max VN number:   0.24E+00 at (  15,   6,  15)
       Total Heat Release Rate:            805.358 kW
       Radiation Loss to Boundaries:      -331.648 kW
 
       Time Step      60   February 21, 2021  19:57:34
       Step Size:    0.504E-02 s, Total Time:       0.70 s
       Pressure Iterations:      2
       Maximum Velocity Error:  0.12E-01 on Mesh   1 at (  14  13  10)
       Maximum Pressure Error:  0.12E+04 on Mesh   1 at (   6   6  19)
       ---------------------------------------------------------------
       Max CFL number:  0.84E+00 at (   6,   6,  18)
       Max divergence:  0.46E+02 at (  12,  11,   1)
       Min divergence: -0.80E+01 at (   4,  11,   3)
       Max VN number:   0.22E+00 at (   6,   6,  18)
       Total Heat Release Rate:            717.281 kW
       Radiation Loss to Boundaries:      -275.381 kW
 
       Time Step      70   February 21, 2021  19:57:35
       Step Size:    0.671E-02 s, Total Time:       0.76 s
       Pressure Iterations:      2
       Maximum Velocity Error:  0.16E-01 on Mesh   1 at (  13   8   3)
       Maximum Pressure Error:  0.18E+04 on Mesh   1 at (  13  11  18)
       ---------------------------------------------------------------
       Max CFL number:  0.91E+00 at (  11,  12,   1)
       Max divergence:  0.87E+02 at (  11,  12,   1)
       Min divergence: -0.83E+01 at (  10,   3,   4)
       Max VN number:   0.28E+00 at (   6,   8,   2)
       Total Heat Release Rate:            725.794 kW
       Radiation Loss to Boundaries:      -290.165 kW
 
       Time Step      80   February 21, 2021  19:57:35
       Step Size:    0.236E-02 s, Total Time:       0.80 s
       Pressure Iterations:     10
       Maximum Velocity Error:  0.55E-04 on Mesh   1 at (   7  14   8)
       Maximum Pressure Error:  0.12E+05 on Mesh   1 at (  10  11   1)
       ---------------------------------------------------------------
       Max CFL number:  0.89E+00 at (  11,  12,   1)
       Max divergence:  0.19E+03 at (  11,  12,   1)
       Min divergence: -0.85E+01 at (   9,   3,   3)
       Max VN number:   0.18E+00 at (  11,  12,   1)
       Total Heat Release Rate:            824.472 kW
       Radiation Loss to Boundaries:      -316.525 kW
 
       Time Step      90   February 21, 2021  19:57:36
       Step Size:    0.260E-02 s, Total Time:       0.82 s
       Pressure Iterations:     10
       Maximum Velocity Error:  0.10E-03 on Mesh   1 at (  13  14   8)
       Maximum Pressure Error:  0.13E+05 on Mesh   1 at (  10  10   1)
       ---------------------------------------------------------------
       Max CFL number:  0.77E+00 at (  10,  12,   1)
       Max divergence:  0.13E+03 at (  10,  12,   1)
       Min divergence: -0.10E+02 at (  13,  17,   2)
       Max VN number:   0.30E+00 at (  10,  12,   1)
       Total Heat Release Rate:            904.241 kW
       Radiation Loss to Boundaries:      -346.774 kW
 
       Time Step     100   February 21, 2021  19:57:36
       Step Size:    0.346E-02 s, Total Time:       0.85 s
       Pressure Iterations:      3
       Maximum Velocity Error:  0.17E-01 on Mesh   1 at (   9  10   3)
       Maximum Pressure Error:  0.41E+04 on Mesh   1 at (   9  10   1)
       ---------------------------------------------------------------
       Max CFL number:  0.98E+00 at (   9,  10,   1)
       Max divergence:  0.95E+02 at (   9,  10,   1)
       Min divergence: -0.12E+02 at (   3,   9,   3)
       Max VN number:   0.27E+00 at (   8,  16,   2)
       Total Heat Release Rate:            948.378 kW
       Radiation Loss to Boundaries:      -375.151 kW
 
       Time Step     200   February 21, 2021  19:57:40
       Step Size:    0.542E-02 s, Total Time:       1.35 s
       Pressure Iterations:      3
       Maximum Velocity Error:  0.99E-02 on Mesh   1 at (   7  10   3)
       Maximum Pressure Error:  0.28E+04 on Mesh   1 at (   6   6  19)
       ---------------------------------------------------------------
       Max CFL number:  0.81E+00 at (   7,   9,   2)
       Max divergence:  0.66E+02 at (   7,   9,   2)
       Min divergence: -0.11E+02 at (  15,   5,  11)
       Max VN number:   0.23E+00 at (  14,   8,   1)
       Total Heat Release Rate:            907.667 kW
       Radiation Loss to Boundaries:      -378.633 kW
 
       Time Step     300   February 21, 2021  19:57:44
       Step Size:    0.379E-02 s, Total Time:       1.88 s
       Pressure Iterations:      3
       Maximum Velocity Error:  0.78E-02 on Mesh   1 at (  14   7   7)
       Maximum Pressure Error:  0.22E+04 on Mesh   1 at (  14  14   6)
       ---------------------------------------------------------------
       Max CFL number:  0.91E+00 at (  15,  10,   1)
       Max divergence:  0.80E+02 at (  15,  10,   1)
       Min divergence: -0.93E+01 at (   9,   7,  18)
       Max VN number:   0.20E+00 at (   9,  16,  13)
       Total Heat Release Rate:            849.082 kW
       Radiation Loss to Boundaries:      -361.317 kW
 
       Time Step     400   February 21, 2021  19:57:47
       Step Size:    0.540E-02 s, Total Time:       2.42 s
       Pressure Iterations:      3
       Maximum Velocity Error:  0.69E-02 on Mesh   1 at (   7  14   3)
       Maximum Pressure Error:  0.28E+04 on Mesh   1 at (   9   4  19)
       ---------------------------------------------------------------
       Max CFL number:  0.85E+00 at (   9,  14,   1)
       Max divergence:  0.65E+02 at (  14,   5,   6)
       Min divergence: -0.92E+01 at (  17,   8,   3)
       Max VN number:   0.31E+00 at (  16,   8,  11)
       Total Heat Release Rate:           1000.871 kW
       Radiation Loss to Boundaries:      -424.196 kW
 
       Time Step     500   February 21, 2021  19:57:51
       Step Size:    0.566E-02 s, Total Time:       2.96 s
       Pressure Iterations:      3
       Maximum Velocity Error:  0.12E-01 on Mesh   1 at (  13   7   3)
       Maximum Pressure Error:  0.45E+04 on Mesh   1 at (   8   6  17)
       ---------------------------------------------------------------
       Max CFL number:  0.91E+00 at (   7,  11,   2)
       Max divergence:  0.72E+02 at (   7,  11,   2)
       Min divergence: -0.75E+01 at (   7,  15,   3)
       Max VN number:   0.36E+00 at (   6,  11,   2)
       Total Heat Release Rate:            955.018 kW
       Radiation Loss to Boundaries:      -408.282 kW
 
       Time Step     600   February 21, 2021  19:57:55
       Step Size:    0.589E-02 s, Total Time:       3.51 s
       Pressure Iterations:      2
       Maximum Velocity Error:  0.24E-01 on Mesh   1 at (  11   8   3)
       Maximum Pressure Error:  0.32E+04 on Mesh   1 at (   7   9   2)
       ---------------------------------------------------------------
       Max CFL number:  0.99E+00 at (   7,  13,   2)
       Max divergence:  0.77E+02 at (   7,  14,   2)
       Min divergence: -0.24E+02 at (  10,  13,   1)
       Max VN number:   0.34E+00 at (  15,   8,  18)
       Total Heat Release Rate:            935.578 kW
       Radiation Loss to Boundaries:      -401.364 kW
 
       Time Step     700   February 21, 2021  19:57:58
       Step Size:    0.474E-02 s, Total Time:       4.00 s
       Pressure Iterations:      3
       Maximum Velocity Error:  0.12E-01 on Mesh   1 at (   9   7   3)
       Maximum Pressure Error:  0.29E+04 on Mesh   1 at (  14   7   2)
       ---------------------------------------------------------------
       Max CFL number:  0.94E+00 at (  13,   7,   2)
       Max divergence:  0.83E+02 at (  13,   7,   2)
       Min divergence: -0.11E+02 at (  11,   4,   2)
       Max VN number:   0.26E+00 at (  12,   4,  13)
       Total Heat Release Rate:            995.281 kW
       Radiation Loss to Boundaries:      -424.002 kW
 
       Time Step     800   February 21, 2021  19:58:02
       Step Size:    0.516E-02 s, Total Time:       4.49 s
       Pressure Iterations:      8
       Maximum Velocity Error:  0.13E-01 on Mesh   1 at (   7   8   3)
       Maximum Pressure Error:  0.53E+04 on Mesh   1 at (   7   7   3)
       ---------------------------------------------------------------
       Max CFL number:  0.95E+00 at (   8,   8,   2)
       Max divergence:  0.68E+02 at (   7,   6,   3)
       Min divergence: -0.12E+02 at (   7,   9,   2)
       Max VN number:   0.38E+00 at (   7,   7,   3)
       Total Heat Release Rate:            960.965 kW
       Radiation Loss to Boundaries:      -405.041 kW
 
       Time Step     900   February 21, 2021  19:58:06
       Step Size:    0.520E-02 s, Total Time:       5.04 s
       Pressure Iterations:      6
       Maximum Velocity Error:  0.15E-01 on Mesh   1 at (   7   8   3)
       Maximum Pressure Error:  0.63E+04 on Mesh   1 at (   7   7   3)
       ---------------------------------------------------------------
       Max CFL number:  0.94E+00 at (   9,  16,  17)
       Max divergence:  0.61E+02 at (   7,   8,   2)
       Min divergence: -0.83E+01 at (  17,  13,   3)
       Max VN number:   0.24E+00 at (  17,  13,  15)
       Total Heat Release Rate:            895.320 kW
       Radiation Loss to Boundaries:      -372.427 kW
 
       Time Step    1000   February 21, 2021  19:58:10
       Step Size:    0.566E-02 s, Total Time:       5.58 s
       Pressure Iterations:      3
       Maximum Velocity Error:  0.17E-01 on Mesh   1 at (  14  14   5)
       Maximum Pressure Error:  0.27E+04 on Mesh   1 at (   8   5   3)
       ---------------------------------------------------------------
       Max CFL number:  0.84E+00 at (   4,   5,  17)
       Max divergence:  0.51E+02 at (   7,  14,   2)
       Min divergence: -0.10E+02 at (   9,  14,   1)
       Max VN number:   0.30E+00 at (  11,  14,   1)
       Total Heat Release Rate:            884.681 kW
       Radiation Loss to Boundaries:      -374.177 kW
 
       Time Step    1100   February 21, 2021  19:58:14
       Step Size:    0.611E-02 s, Total Time:       6.15 s
       Pressure Iterations:      2
       Maximum Velocity Error:  0.12E-01 on Mesh   1 at (  14  13   4)
       Maximum Pressure Error:  0.22E+04 on Mesh   1 at (   5   5  11)
       ---------------------------------------------------------------
       Max CFL number:  0.94E+00 at (   6,  15,  19)
       Max divergence:  0.47E+02 at (   8,  14,   2)
       Min divergence: -0.13E+02 at (   9,  10,   2)
       Max VN number:   0.27E+00 at (  11,  16,  12)
       Total Heat Release Rate:            693.188 kW
       Radiation Loss to Boundaries:      -286.293 kW
 
       Time Step    1200   February 21, 2021  19:58:17
       Step Size:    0.535E-02 s, Total Time:       6.73 s
       Pressure Iterations:      5
       Maximum Velocity Error:  0.15E-01 on Mesh   1 at (   8  12   3)
       Maximum Pressure Error:  0.21E+04 on Mesh   1 at (   6  15  18)
       ---------------------------------------------------------------
       Max CFL number:  0.83E+00 at (   6,  12,   3)
       Max divergence:  0.61E+02 at (   6,  12,   3)
       Min divergence: -0.10E+02 at (   4,  12,   4)
       Max VN number:   0.28E+00 at (  14,   9,   2)
       Total Heat Release Rate:            729.690 kW
       Radiation Loss to Boundaries:      -307.992 kW
 
       Time Step    1300   February 21, 2021  19:58:21
       Step Size:    0.190E-02 s, Total Time:       7.17 s
       Pressure Iterations:      4
       Maximum Velocity Error:  0.13E-01 on Mesh   1 at (   8   9   3)
       Maximum Pressure Error:  0.40E+04 on Mesh   1 at (   9  14   3)
       ---------------------------------------------------------------
       Max CFL number:  0.81E+00 at (   8,  14,   3)
       Max divergence:  0.19E+03 at (   8,  14,   3)
       Min divergence: -0.12E+02 at (   9,  11,   2)
       Max VN number:   0.36E+00 at (   8,  14,   3)
       Total Heat Release Rate:            838.725 kW
       Radiation Loss to Boundaries:      -357.116 kW
 
       Time Step    1400   February 21, 2021  19:58:25
       Step Size:    0.312E-02 s, Total Time:       7.42 s
       Pressure Iterations:      4
       Maximum Velocity Error:  0.21E-01 on Mesh   1 at (  10  13   3)
       Maximum Pressure Error:  0.59E+04 on Mesh   1 at (  10  14   3)
       ---------------------------------------------------------------
       Max CFL number:  0.92E+00 at (   9,  14,   2)
       Max divergence:  0.10E+03 at (  11,   5,   1)
       Min divergence: -0.13E+02 at (   6,   7,   4)
       Max VN number:   0.31E+00 at (  11,  14,   2)
       Total Heat Release Rate:            994.372 kW
       Radiation Loss to Boundaries:      -425.082 kW
 
       Time Step    1500   February 21, 2021  19:58:29
       Step Size:    0.480E-02 s, Total Time:       7.77 s
       Pressure Iterations:      4
       Maximum Velocity Error:  0.13E-01 on Mesh   1 at (  14  13   7)
       Maximum Pressure Error:  0.72E+04 on Mesh   1 at (   3  20  16)
       ---------------------------------------------------------------
       Max CFL number:  0.93E+00 at (  12,  14,   3)
       Max divergence:  0.97E+02 at (  12,  14,   3)
       Min divergence: -0.15E+02 at (  10,  17,   3)
       Max VN number:   0.38E+00 at (   8,  14,   3)
       Total Heat Release Rate:           1097.365 kW
       Radiation Loss to Boundaries:      -461.718 kW
 
       Time Step    1600   February 21, 2021  19:58:33
       Step Size:    0.282E-02 s, Total Time:       8.15 s
       Pressure Iterations:      5
       Maximum Velocity Error:  0.20E-01 on Mesh   1 at (  14  12   4)
       Maximum Pressure Error:  0.71E+04 on Mesh   1 at (   1  11  16)
       ---------------------------------------------------------------
       Max CFL number:  0.91E+00 at (  14,  12,   3)
       Max divergence:  0.15E+03 at (  14,  12,   3)
       Min divergence: -0.16E+02 at (  15,   9,   3)
       Max VN number:   0.30E+00 at (  14,  12,   3)
       Total Heat Release Rate:            898.081 kW
       Radiation Loss to Boundaries:      -383.710 kW
 
       Time Step    1700   February 21, 2021  19:58:37
       Step Size:    0.311E-02 s, Total Time:       8.51 s
       Pressure Iterations:      6
       Maximum Velocity Error:  0.18E-01 on Mesh   1 at (  10  14   4)
       Maximum Pressure Error:  0.63E+04 on Mesh   1 at (   9  14   4)
       ---------------------------------------------------------------
       Max CFL number:  0.86E+00 at (  11,  14,   3)
       Max divergence:  0.13E+03 at (  11,  14,   3)
       Min divergence: -0.21E+02 at (  12,  14,   4)
       Max VN number:   0.33E+00 at (  11,  14,   3)
       Total Heat Release Rate:            928.503 kW
       Radiation Loss to Boundaries:      -387.546 kW
 
       Time Step    1800   February 21, 2021  19:58:41
       Step Size:    0.276E-02 s, Total Time:       8.71 s
       Pressure Iterations:      3
       Maximum Velocity Error:  0.24E-01 on Mesh   1 at (   9  12   3)
       Maximum Pressure Error:  0.59E+04 on Mesh   1 at (  13  13   1)
       ---------------------------------------------------------------
       Max CFL number:  0.91E+00 at (  10,  13,   3)
       Max divergence:  0.13E+03 at (  10,  13,   3)
       Min divergence: -0.17E+02 at (   9,   9,   1)
       Max VN number:   0.46E+00 at (  10,  13,   3)
       Total Heat Release Rate:           1065.459 kW
       Radiation Loss to Boundaries:      -431.965 kW
 
       Time Step    1900   February 21, 2021  19:58:45
       Step Size:    0.246E-02 s, Total Time:       8.97 s
       Pressure Iterations:      4
       Maximum Velocity Error:  0.98E-02 on Mesh   1 at (  10  14   5)
       Maximum Pressure Error:  0.43E+04 on Mesh   1 at (  15  13   1)
       ---------------------------------------------------------------
       Max CFL number:  0.87E+00 at (  10,  13,   3)
       Max divergence:  0.14E+03 at (  10,  13,   3)
       Min divergence: -0.11E+02 at (  10,  15,  16)
       Max VN number:   0.44E+00 at (  10,  13,   3)
       Total Heat Release Rate:            982.176 kW
       Radiation Loss to Boundaries:      -406.232 kW
 
       Time Step    2000   February 21, 2021  19:58:48
       Step Size:    0.363E-02 s, Total Time:       9.18 s
       Pressure Iterations:      3
       Maximum Velocity Error:  0.24E-01 on Mesh   1 at (  10  14   5)
       Maximum Pressure Error:  0.75E+04 on Mesh   1 at (  10  14   4)
       ---------------------------------------------------------------
       Max CFL number:  0.73E+00 at (  10,  14,   3)
       Max divergence:  0.82E+02 at (   9,  10,   2)
       Min divergence: -0.19E+02 at (   6,  10,   4)
       Max VN number:   0.40E+00 at (  10,  14,   3)
       Total Heat Release Rate:            961.561 kW
       Radiation Loss to Boundaries:      -415.284 kW
 
       Time Step    2100   February 21, 2021  19:58:52
       Step Size:    0.577E-02 s, Total Time:       9.72 s
       Pressure Iterations:      3
       Maximum Velocity Error:  0.75E-02 on Mesh   1 at (  10   9   3)
       Maximum Pressure Error:  0.14E+04 on Mesh   1 at (  15  10  19)
       ---------------------------------------------------------------
       Max CFL number:  0.93E+00 at (  17,  13,  18)
       Max divergence:  0.45E+02 at (  13,   7,   3)
       Min divergence: -0.11E+02 at (   8,   6,   4)
       Max VN number:   0.26E+00 at (  10,   3,  15)
       Total Heat Release Rate:            709.249 kW
       Radiation Loss to Boundaries:      -296.742 kW
 
       Time Step    2200   February 21, 2021  19:58:56
       Step Size:    0.502E-02 s, Total Time:      10.28 s
       Pressure Iterations:      4
       Maximum Velocity Error:  0.12E-01 on Mesh   1 at (  10  11   3)
       Maximum Pressure Error:  0.26E+04 on Mesh   1 at (   6  15  14)
       ---------------------------------------------------------------
       Max CFL number:  0.91E+00 at (  13,  13,   3)
       Max divergence:  0.67E+02 at (  13,  13,   3)
       Min divergence: -0.11E+02 at (   8,  13,   3)
       Max VN number:   0.28E+00 at (  13,  13,   3)
       Total Heat Release Rate:            598.940 kW
       Radiation Loss to Boundaries:      -252.050 kW
 
       Time Step    2300   February 21, 2021  19:58:59
       Step Size:    0.624E-02 s, Total Time:      10.82 s
       Pressure Iterations:      2
       Maximum Velocity Error:  0.14E-01 on Mesh   1 at (  10   8   4)
       Maximum Pressure Error:  0.17E+04 on Mesh   1 at (  12   6   3)
       ---------------------------------------------------------------
       Max CFL number:  0.89E+00 at (  10,  15,  19)
       Max divergence:  0.47E+02 at (   8,  11,   3)
       Min divergence: -0.11E+02 at (   8,  13,  11)
       Max VN number:   0.29E+00 at (  15,   8,  11)
       Total Heat Release Rate:            557.897 kW
       Radiation Loss to Boundaries:      -240.025 kW
 
       Time Step    2400   February 21, 2021  19:59:03
       Step Size:    0.514E-02 s, Total Time:      11.36 s
       Pressure Iterations:      5
       Maximum Velocity Error:  0.20E-01 on Mesh   1 at (   9  13   4)
       Maximum Pressure Error:  0.50E+04 on Mesh   1 at (   9  13   4)
       ---------------------------------------------------------------
       Max CFL number:  0.92E+00 at (   8,   9,   3)
       Max divergence:  0.58E+02 at (   7,  11,   5)
       Min divergence: -0.11E+02 at (  10,  16,   4)
       Max VN number:   0.31E+00 at (   7,  10,   3)
       Total Heat Release Rate:            729.031 kW
       Radiation Loss to Boundaries:      -308.184 kW
 
       Time Step    2500   February 21, 2021  19:59:06
       Step Size:    0.588E-02 s, Total Time:      11.90 s
       Pressure Iterations:      2
       Maximum Velocity Error:  0.18E-01 on Mesh   1 at (  11  13   7)
       Maximum Pressure Error:  0.24E+04 on Mesh   1 at (  15  16  15)
       ---------------------------------------------------------------
       Max CFL number:  0.86E+00 at (  16,   8,  19)
       Max divergence:  0.62E+02 at (   7,  13,   4)
       Min divergence: -0.87E+01 at (  10,  14,   4)
       Max VN number:   0.34E+00 at (   8,  13,   3)
       Total Heat Release Rate:            633.799 kW
       Radiation Loss to Boundaries:      -269.125 kW
 
       Time Step    2600   February 21, 2021  19:59:10
       Step Size:    0.563E-02 s, Total Time:      12.46 s
       Pressure Iterations:      3
       Maximum Velocity Error:  0.91E-02 on Mesh   1 at (  13  10   4)
       Maximum Pressure Error:  0.17E+04 on Mesh   1 at (   6  12  19)
       ---------------------------------------------------------------
       Max CFL number:  0.84E+00 at (   6,  12,  18)
       Max divergence:  0.54E+02 at (   8,  12,   3)
       Min divergence: -0.11E+02 at (   8,  15,   4)
       Max VN number:   0.31E+00 at (  11,   6,  14)
       Total Heat Release Rate:            584.397 kW
       Radiation Loss to Boundaries:      -250.661 kW
 
       Time Step    2700   February 21, 2021  19:59:13
       Step Size:    0.499E-02 s, Total Time:      13.01 s
       Pressure Iterations:      5
       Maximum Velocity Error:  0.15E-01 on Mesh   1 at (  13  11   4)
       Maximum Pressure Error:  0.36E+04 on Mesh   1 at (  13  12   4)
       ---------------------------------------------------------------
       Max CFL number:  0.77E+00 at (   8,  12,   4)
       Max divergence:  0.53E+02 at (  13,  13,   4)
       Min divergence: -0.19E+02 at (  13,  12,   4)
       Max VN number:   0.51E+00 at (   8,  13,   4)
       Total Heat Release Rate:            552.292 kW
       Radiation Loss to Boundaries:      -231.801 kW
 
       Time Step    2800   February 21, 2021  19:59:17
       Step Size:    0.427E-02 s, Total Time:      13.57 s
       Pressure Iterations:      3
       Maximum Velocity Error:  0.14E-01 on Mesh   1 at (  12  13   8)
       Maximum Pressure Error:  0.17E+04 on Mesh   1 at (   9  15   9)
       ---------------------------------------------------------------
       Max CFL number:  0.94E+00 at (  13,  11,   3)
       Max divergence:  0.72E+02 at (  13,  11,   3)
       Min divergence: -0.89E+01 at (   8,  14,   5)
       Max VN number:   0.36E+00 at (  13,  11,   3)
       Total Heat Release Rate:            623.802 kW
       Radiation Loss to Boundaries:      -266.797 kW
 
       Time Step    2900   February 21, 2021  19:59:20
       Step Size:    0.625E-02 s, Total Time:      14.10 s
       Pressure Iterations:      3
       Maximum Velocity Error:  0.11E-01 on Mesh   1 at (  10  13   5)
       Maximum Pressure Error:  0.21E+04 on Mesh   1 at (  12   6   4)
       ---------------------------------------------------------------
       Max CFL number:  0.99E+00 at (  11,   6,  17)
       Max divergence:  0.51E+02 at (   8,  13,   4)
       Min divergence: -0.75E+01 at (   8,  13,   5)
       Max VN number:   0.28E+00 at (  15,  13,  16)
       Total Heat Release Rate:            591.369 kW
       Radiation Loss to Boundaries:      -251.778 kW
 
       Time Step    3000   February 21, 2021  19:59:24
       Step Size:    0.420E-02 s, Total Time:      14.62 s
       Pressure Iterations:      2
       Maximum Velocity Error:  0.20E-01 on Mesh   1 at (   9  11   4)
       Maximum Pressure Error:  0.60E+04 on Mesh   1 at (   9   8   4)
       ---------------------------------------------------------------
       Max CFL number:  0.94E+00 at (   9,   8,   4)
       Max divergence:  0.10E+03 at (   9,   8,   4)
       Min divergence: -0.87E+01 at (   8,  13,   5)
       Max VN number:   0.34E+00 at (   9,   8,   4)
       Total Heat Release Rate:            654.795 kW
       Radiation Loss to Boundaries:      -283.546 kW
 
       Time Step    3100   February 21, 2021  19:59:28
       Step Size:    0.512E-02 s, Total Time:      15.09 s
       Pressure Iterations:      3
       Maximum Velocity Error:  0.11E-01 on Mesh   1 at (   8  11   5)
       Maximum Pressure Error:  0.62E+04 on Mesh   1 at (  12   8   4)
       ---------------------------------------------------------------
       Max CFL number:  0.83E+00 at (  12,   8,   4)
       Max divergence:  0.78E+02 at (  12,   8,   4)
       Min divergence: -0.92E+01 at (  14,   5,   6)
       Max VN number:   0.37E+00 at (  12,   8,   4)
       Total Heat Release Rate:            766.393 kW
       Radiation Loss to Boundaries:      -314.228 kW
 
       Time Step    3200   February 21, 2021  19:59:31
       Step Size:    0.549E-02 s, Total Time:      15.64 s
       Pressure Iterations:      6
       Maximum Velocity Error:  0.13E-01 on Mesh   1 at (  10  12   4)
       Maximum Pressure Error:  0.40E+04 on Mesh   1 at (   9  12   5)
       ---------------------------------------------------------------
       Max CFL number:  0.89E+00 at (  12,   7,  18)
       Max divergence:  0.56E+02 at (  10,  14,   5)
       Min divergence: -0.93E+01 at (   8,   6,  16)
       Max VN number:   0.30E+00 at (   9,  13,   4)
       Total Heat Release Rate:            553.439 kW
       Radiation Loss to Boundaries:      -229.477 kW
 
       Time Step    3300   February 21, 2021  19:59:35
       Step Size:    0.419E-02 s, Total Time:      16.16 s
       Pressure Iterations:      4
       Maximum Velocity Error:  0.16E-01 on Mesh   1 at (  12   9   5)
       Maximum Pressure Error:  0.55E+04 on Mesh   1 at (  13  11   4)
       ---------------------------------------------------------------
       Max CFL number:  0.90E+00 at (  13,  11,   4)
       Max divergence:  0.84E+02 at (  13,  11,   4)
       Min divergence: -0.13E+02 at (  13,  13,   6)
       Max VN number:   0.38E+00 at (  13,  11,   3)
       Total Heat Release Rate:            644.961 kW
       Radiation Loss to Boundaries:      -276.614 kW
 
       Time Step    3400   February 21, 2021  19:59:38
       Step Size:    0.598E-02 s, Total Time:      16.69 s
       Pressure Iterations:      3
       Maximum Velocity Error:  0.20E-01 on Mesh   1 at (  10   9   5)
       Maximum Pressure Error:  0.26E+04 on Mesh   1 at (   9  12   5)
       ---------------------------------------------------------------
       Max CFL number:  0.93E+00 at (   7,   7,  19)
       Max divergence:  0.47E+02 at (  10,   8,   4)
       Min divergence: -0.11E+02 at (  11,   9,   4)
       Max VN number:   0.27E+00 at (  11,   8,   4)
       Total Heat Release Rate:            479.130 kW
       Radiation Loss to Boundaries:      -192.069 kW
 
       Time Step    3500   February 21, 2021  19:59:42
       Step Size:    0.389E-02 s, Total Time:      17.16 s
       Pressure Iterations:      2
       Maximum Velocity Error:  0.20E-01 on Mesh   1 at (   8  11   6)
       Maximum Pressure Error:  0.32E+04 on Mesh   1 at (   8  11   5)
       ---------------------------------------------------------------
       Max CFL number:  0.99E+00 at (  11,  10,   3)
       Max divergence:  0.75E+02 at (  11,  10,   3)
       Min divergence: -0.10E+02 at (  10,   4,   6)
       Max VN number:   0.29E+00 at (  11,  10,   3)
       Total Heat Release Rate:            512.172 kW
       Radiation Loss to Boundaries:      -208.961 kW
 
       Time Step    3600   February 21, 2021  19:59:46
       Step Size:    0.377E-02 s, Total Time:      17.51 s
       Pressure Iterations:      3
       Maximum Velocity Error:  0.99E-02 on Mesh   1 at (  13  11   6)
       Maximum Pressure Error:  0.38E+04 on Mesh   1 at (  13  11   6)
       ---------------------------------------------------------------
       Max CFL number:  0.97E+00 at (  12,  11,   4)
       Max divergence:  0.13E+03 at (  12,  11,   4)
       Min divergence: -0.12E+02 at (  10,  12,   4)
       Max VN number:   0.37E+00 at (  12,  12,   4)
       Total Heat Release Rate:            624.291 kW
       Radiation Loss to Boundaries:      -262.780 kW
 
       Time Step    3700   February 21, 2021  19:59:49
       Step Size:    0.253E-02 s, Total Time:      17.84 s
       Pressure Iterations:      3
       Maximum Velocity Error:  0.11E-01 on Mesh   1 at (  13  11   6)
       Maximum Pressure Error:  0.29E+04 on Mesh   1 at (   9   9   5)
       ---------------------------------------------------------------
       Max CFL number:  0.95E+00 at (  12,  10,   4)
       Max divergence:  0.13E+03 at (  12,  10,   4)
       Min divergence: -0.12E+02 at (   8,  11,   4)
       Max VN number:   0.40E+00 at (  11,   9,   4)
       Total Heat Release Rate:            676.858 kW
       Radiation Loss to Boundaries:      -286.279 kW
 
       Time Step    3800   February 21, 2021  19:59:52
       Step Size:    0.320E-02 s, Total Time:      18.08 s
       Pressure Iterations:      3
       Maximum Velocity Error:  0.21E-01 on Mesh   1 at (  11  12   5)
       Maximum Pressure Error:  0.21E+04 on Mesh   1 at (  11  12   4)
       ---------------------------------------------------------------
       Max CFL number:  0.86E+00 at (  13,  10,   5)
       Max divergence:  0.13E+03 at (  13,  10,   5)
       Min divergence: -0.18E+02 at (   7,   6,   9)
       Max VN number:   0.38E+00 at (  11,  12,   3)
       Total Heat Release Rate:            842.841 kW
       Radiation Loss to Boundaries:      -356.245 kW
 
       Time Step    3900   February 21, 2021  19:59:56
       Step Size:    0.489E-02 s, Total Time:      18.56 s
       Pressure Iterations:      3
       Maximum Velocity Error:  0.74E-02 on Mesh   1 at (  10   9   8)
       Maximum Pressure Error:  0.32E+04 on Mesh   1 at (  12   9   5)
       ---------------------------------------------------------------
       Max CFL number:  0.84E+00 at (  12,   9,   4)
       Max divergence:  0.56E+02 at (  11,   9,   4)
       Min divergence: -0.80E+01 at (  16,  10,   5)
       Max VN number:   0.30E+00 at (  10,   8,   4)
       Total Heat Release Rate:            472.975 kW
       Radiation Loss to Boundaries:      -190.630 kW
 
       Time Step    4000   February 21, 2021  19:59:59
       Step Size:    0.485E-02 s, Total Time:      19.13 s
       Pressure Iterations:      7
       Maximum Velocity Error:  0.14E-01 on Mesh   1 at (  12  12   6)
       Maximum Pressure Error:  0.45E+04 on Mesh   1 at (   9  10   5)
       ---------------------------------------------------------------
       Max CFL number:  0.86E+00 at (  12,  13,   5)
       Max divergence:  0.68E+02 at (  12,  13,   5)
       Min divergence: -0.13E+02 at (  12,  12,   5)
       Max VN number:   0.31E+00 at (  10,  10,   4)
       Total Heat Release Rate:            435.463 kW
       Radiation Loss to Boundaries:      -177.711 kW
 
       Time Step    4100   February 21, 2021  20:00:03
       Step Size:    0.497E-02 s, Total Time:      19.60 s
       Pressure Iterations:      2
       Maximum Velocity Error:  0.25E-01 on Mesh   1 at (  10  12   8)
       Maximum Pressure Error:  0.33E+04 on Mesh   1 at (   9   9   5)
       ---------------------------------------------------------------
       Max CFL number:  0.87E+00 at (  10,   9,   4)
       Max divergence:  0.68E+02 at (  10,   9,   4)
       Min divergence: -0.11E+02 at (  12,   9,   5)
       Max VN number:   0.41E+00 at (   9,   9,   4)
       Total Heat Release Rate:            497.558 kW
       Radiation Loss to Boundaries:      -207.121 kW
 
       Time Step    4200   February 21, 2021  20:00:06
       Step Size:    0.488E-02 s, Total Time:      20.18 s
       Pressure Iterations:      2
       Maximum Velocity Error:  0.18E-01 on Mesh   1 at (  10  11   5)
       Maximum Pressure Error:  0.23E+04 on Mesh   1 at (  12  10   5)
       ---------------------------------------------------------------
       Max CFL number:  0.82E+00 at (  11,   9,   4)
       Max divergence:  0.49E+02 at (  10,   9,   4)
       Min divergence: -0.78E+01 at (   9,   9,   5)
       Max VN number:   0.23E+00 at (  12,   9,   4)
       Total Heat Release Rate:            396.025 kW
       Radiation Loss to Boundaries:      -161.013 kW
 
       Time Step    4300   February 21, 2021  20:00:10
       Step Size:    0.511E-02 s, Total Time:      20.72 s
       Pressure Iterations:      2
       Maximum Velocity Error:  0.15E-01 on Mesh   1 at (  12  10   5)
       Maximum Pressure Error:  0.44E+04 on Mesh   1 at (  12   9   5)
       ---------------------------------------------------------------
       Max CFL number:  0.86E+00 at (  11,  11,   4)
       Max divergence:  0.68E+02 at (  11,  11,   4)
       Min divergence: -0.77E+01 at (   9,  16,   5)
       Max VN number:   0.48E+00 at (  12,   9,   4)
       Total Heat Release Rate:            520.530 kW
       Radiation Loss to Boundaries:      -211.152 kW
 
       Time Step    4400   February 21, 2021  20:00:13
       Step Size:    0.444E-02 s, Total Time:      21.20 s
       Pressure Iterations:      3
       Maximum Velocity Error:  0.17E-01 on Mesh   1 at (  12  11   6)
       Maximum Pressure Error:  0.37E+04 on Mesh   1 at (   9  11   6)
       ---------------------------------------------------------------
       Max CFL number:  0.79E+00 at (  10,  11,   4)
       Max divergence:  0.72E+02 at (   9,  12,   5)
       Min divergence: -0.12E+02 at (  10,  10,   1)
       Max VN number:   0.37E+00 at (  10,  11,   4)
       Total Heat Release Rate:            413.721 kW
       Radiation Loss to Boundaries:      -164.031 kW
 
       Time Step    4500   February 21, 2021  20:00:16
       Step Size:    0.283E-02 s, Total Time:      21.59 s
       Pressure Iterations:      3
       Maximum Velocity Error:  0.16E-01 on Mesh   1 at (  10  11   5)
       Maximum Pressure Error:  0.42E+04 on Mesh   1 at (  11  11   5)
       ---------------------------------------------------------------
       Max CFL number:  0.89E+00 at (   9,  11,   5)
       Max divergence:  0.11E+03 at (   9,  11,   5)
       Min divergence: -0.11E+02 at (  11,  13,   2)
       Max VN number:   0.44E+00 at (   9,  12,   5)
       Total Heat Release Rate:            500.758 kW
       Radiation Loss to Boundaries:      -205.410 kW
 
       Time Step    4600   February 21, 2021  20:00:20
       Step Size:    0.335E-02 s, Total Time:      22.05 s
       Pressure Iterations:      2
       Maximum Velocity Error:  0.22E-01 on Mesh   1 at (  12  10   6)
       Maximum Pressure Error:  0.65E+04 on Mesh   1 at (  12  10   5)
       ---------------------------------------------------------------
       Max CFL number:  0.87E+00 at (  12,  10,   5)
       Max divergence:  0.11E+03 at (  12,  10,   5)
       Min divergence: -0.78E+01 at (  13,  11,   6)
       Max VN number:   0.32E+00 at (  12,  10,   5)
       Total Heat Release Rate:            423.934 kW
       Radiation Loss to Boundaries:      -169.108 kW
 
       Time Step    4700   February 21, 2021  20:00:23
       Step Size:    0.227E-02 s, Total Time:      22.29 s
       Pressure Iterations:      3
       Maximum Velocity Error:  0.10E-01 on Mesh   1 at (  12  10   6)
       Maximum Pressure Error:  0.16E+04 on Mesh   1 at (  12  10   5)
       ---------------------------------------------------------------
       Max CFL number:  0.80E+00 at (  12,  11,   5)
       Max divergence:  0.14E+03 at (  12,  11,   5)
       Min divergence: -0.15E+02 at (  15,   6,   8)
       Max VN number:   0.43E+00 at (  12,  11,   5)
       Total Heat Release Rate:            546.177 kW
       Radiation Loss to Boundaries:      -221.746 kW
 
       Time Step    4800   February 21, 2021  20:00:26
       Step Size:    0.301E-02 s, Total Time:      22.57 s
       Pressure Iterations:      3
       Maximum Velocity Error:  0.17E-01 on Mesh   1 at (  11  11   5)
       Maximum Pressure Error:  0.64E+04 on Mesh   1 at (  12  13   5)
       ---------------------------------------------------------------
       Max CFL number:  0.83E+00 at (  12,  11,   5)
       Max divergence:  0.10E+03 at (  12,  11,   5)
       Min divergence: -0.16E+02 at (  11,  12,   8)
       Max VN number:   0.38E+00 at (  12,  12,   5)
       Total Heat Release Rate:            526.880 kW
       Radiation Loss to Boundaries:      -209.927 kW
 
       Time Step    4900   February 21, 2021  20:00:29
       Step Size:    0.487E-02 s, Total Time:      23.06 s
       Pressure Iterations:      3
       Maximum Velocity Error:  0.21E-01 on Mesh   1 at (   9  11   6)
       Maximum Pressure Error:  0.76E+04 on Mesh   1 at (   9  11   5)
       ---------------------------------------------------------------
       Max CFL number:  0.90E+00 at (   9,  11,   5)
       Max divergence:  0.10E+03 at (   9,  11,   5)
       Min divergence: -0.89E+01 at (   9,  12,   6)
       Max VN number:   0.30E+00 at (   9,  11,   5)
       Total Heat Release Rate:            453.413 kW
       Radiation Loss to Boundaries:      -187.046 kW
 
       Time Step    5000   February 21, 2021  20:00:33
       Step Size:    0.333E-02 s, Total Time:      23.46 s
       Pressure Iterations:      3
       Maximum Velocity Error:  0.15E-01 on Mesh   1 at (   9  10   6)
       Maximum Pressure Error:  0.12E+04 on Mesh   1 at (   9  10   5)
       ---------------------------------------------------------------
       Max CFL number:  0.93E+00 at (   9,  10,   5)
       Max divergence:  0.13E+03 at (   9,  10,   5)
       Min divergence: -0.13E+02 at (  12,  12,   6)
       Max VN number:   0.60E+00 at (   9,  10,   5)
       Total Heat Release Rate:            446.118 kW
       Radiation Loss to Boundaries:      -184.359 kW
 
       Time Step    5100   February 21, 2021  20:00:36
       Step Size:    0.502E-02 s, Total Time:      23.90 s
       Pressure Iterations:      2
       Maximum Velocity Error:  0.13E-01 on Mesh   1 at (  11  11   6)
       Maximum Pressure Error:  0.14E+04 on Mesh   1 at (  11  11   6)
       ---------------------------------------------------------------
       Max CFL number:  0.93E+00 at (  11,  11,   5)
       Max divergence:  0.66E+02 at (  10,  11,   5)
       Min divergence: -0.84E+01 at (  13,  11,  12)
       Max VN number:   0.38E+00 at (  10,  11,   5)
       Total Heat Release Rate:            239.615 kW
       Radiation Loss to Boundaries:       -91.047 kW
 
       Time Step    5200   February 21, 2021  20:00:40
       Step Size:    0.290E-02 s, Total Time:      24.26 s
       Pressure Iterations:      2
       Maximum Velocity Error:  0.44E-02 on Mesh   1 at (  11  10   6)
       Maximum Pressure Error:  0.22E+04 on Mesh   1 at (  10  11   6)
       ---------------------------------------------------------------
       Max CFL number:  0.94E+00 at (  11,  11,   5)
       Max divergence:  0.85E+02 at (  11,  11,   5)
       Min divergence: -0.96E+01 at (  14,   6,   8)
       Max VN number:   0.41E+00 at (  11,  11,   5)
       Total Heat Release Rate:            236.396 kW
       Radiation Loss to Boundaries:       -94.973 kW
 
       Time Step    5300   February 21, 2021  20:00:44
       Step Size:    0.290E-02 s, Total Time:      24.55 s
       Pressure Iterations:      2
       Maximum Velocity Error:  0.95E-02 on Mesh   1 at (  10  11   7)
       Maximum Pressure Error:  0.12E+04 on Mesh   1 at (  10  11   5)
       ---------------------------------------------------------------
       Max CFL number:  0.80E+00 at (  11,  11,   5)
       Max divergence:  0.84E+02 at (  11,  10,   5)
       Min divergence: -0.11E+02 at (   7,   8,  13)
       Max VN number:   0.37E+00 at (  11,  10,   5)
       Total Heat Release Rate:            275.197 kW
       Radiation Loss to Boundaries:      -107.107 kW
 
       Time Step    5400   February 21, 2021  20:00:47
       Step Size:    0.285E-02 s, Total Time:      24.85 s
       Pressure Iterations:      1
       Maximum Velocity Error:  0.23E-01 on Mesh   1 at (  10  11   6)
       Maximum Pressure Error:  0.15E+04 on Mesh   1 at (  10  11   6)
       ---------------------------------------------------------------
       Max CFL number:  0.93E+00 at (  11,  11,   5)
       Max divergence:  0.92E+02 at (  11,  11,   5)
       Min divergence: -0.60E+01 at (   9,   8,   7)
       Max VN number:   0.44E+00 at (  11,  11,   5)
       Total Heat Release Rate:            202.773 kW
       Radiation Loss to Boundaries:       -75.323 kW
 
       Time Step    5500   February 21, 2021  20:00:51
       Step Size:    0.314E-02 s, Total Time:      25.14 s
       Pressure Iterations:      2
       Maximum Velocity Error:  0.14E-01 on Mesh   1 at (  11  11   7)
       Maximum Pressure Error:  0.11E+04 on Mesh   1 at (  11  11   7)
       ---------------------------------------------------------------
       Max CFL number:  0.91E+00 at (  11,  11,   5)
       Max divergence:  0.82E+02 at (  11,  11,   5)
       Min divergence: -0.93E+01 at (   6,  12,   8)
       Max VN number:   0.31E+00 at (  11,  11,   5)
       Total Heat Release Rate:            251.604 kW
       Radiation Loss to Boundaries:       -98.395 kW
 
       Time Step    5600   February 21, 2021  20:00:55
       Step Size:    0.379E-02 s, Total Time:      25.47 s
       Pressure Iterations:      2
       Maximum Velocity Error:  0.22E-01 on Mesh   1 at (  11  10   6)
       Maximum Pressure Error:  0.30E+04 on Mesh   1 at (  10  11   5)
       ---------------------------------------------------------------
       Max CFL number:  0.82E+00 at (  11,  11,   5)
       Max divergence:  0.85E+02 at (  11,  11,   5)
       Min divergence: -0.62E+01 at (  13,   7,   8)
       Max VN number:   0.50E+00 at (  11,  11,   5)
       Total Heat Release Rate:            224.504 kW
       Radiation Loss to Boundaries:       -89.866 kW
 
       Time Step    5700   February 21, 2021  20:00:58
       Step Size:    0.323E-02 s, Total Time:      25.83 s
       Pressure Iterations:      2
       Maximum Velocity Error:  0.15E-01 on Mesh   1 at (  11  10   6)
       Maximum Pressure Error:  0.16E+04 on Mesh   1 at (  12  11   6)
       ---------------------------------------------------------------
       Max CFL number:  0.84E+00 at (  11,  11,   5)
       Max divergence:  0.89E+02 at (  11,  11,   5)
       Min divergence: -0.68E+01 at (   8,   9,   7)
       Max VN number:   0.41E+00 at (  11,  11,   5)
       Total Heat Release Rate:            242.595 kW
       Radiation Loss to Boundaries:       -97.277 kW
 
       Time Step    5800   February 21, 2021  20:01:02
       Step Size:    0.344E-02 s, Total Time:      26.16 s
       Pressure Iterations:      2
       Maximum Velocity Error:  0.89E-02 on Mesh   1 at (  10  11   6)
       Maximum Pressure Error:  0.83E+03 on Mesh   1 at (  11  10   6)
       ---------------------------------------------------------------
       Max CFL number:  0.86E+00 at (  11,  11,   5)
       Max divergence:  0.85E+02 at (  11,  11,   5)
       Min divergence: -0.70E+01 at (  10,  13,   7)
       Max VN number:   0.51E+00 at (  11,  11,   5)
       Total Heat Release Rate:            224.752 kW
       Radiation Loss to Boundaries:       -87.859 kW
 
       Time Step    5900   February 21, 2021  20:01:05
       Step Size:    0.360E-02 s, Total Time:      26.53 s
       Pressure Iterations:      2
       Maximum Velocity Error:  0.13E-01 on Mesh   1 at (  11  11   6)
       Maximum Pressure Error:  0.48E+04 on Mesh   1 at (  10  11   6)
       ---------------------------------------------------------------
       Max CFL number:  0.99E+00 at (  10,  11,   5)
       Max divergence:  0.87E+02 at (  10,  10,   5)
       Min divergence: -0.49E+01 at (  13,  12,   7)
       Max VN number:   0.55E+00 at (  10,  10,   5)
       Total Heat Release Rate:            208.926 kW
       Radiation Loss to Boundaries:       -81.867 kW
 
       Time Step    6000   February 21, 2021  20:01:08
       Step Size:    0.373E-02 s, Total Time:      26.93 s
       Pressure Iterations:      3
       Maximum Velocity Error:  0.50E-02 on Mesh   1 at (  11  11   6)
       Maximum Pressure Error:  0.23E+04 on Mesh   1 at (  11  11   5)
       ---------------------------------------------------------------
       Max CFL number:  0.89E+00 at (  10,  11,   5)
       Max divergence:  0.88E+02 at (  10,  11,   5)
       Min divergence: -0.55E+01 at (  15,  12,   9)
       Max VN number:   0.54E+00 at (  10,  11,   5)
       Total Heat Release Rate:            230.045 kW
       Radiation Loss to Boundaries:       -84.980 kW
 
       Time Step    6100   February 21, 2021  20:01:11
       Step Size:    0.750E-02 s, Total Time:      27.32 s
       Pressure Iterations:      1
       Maximum Velocity Error:  0.00E+00 on Mesh   1 at (  10  10   6)
       Maximum Pressure Error:  0.13E+04 on Mesh   1 at (  14   8   9)
       ---------------------------------------------------------------
       Max CFL number:  0.81E+00 at (  10,  10,  10)
       Max divergence:  0.94E+01 at (  13,   8,  13)
       Min divergence: -0.47E+01 at (   9,  10,  19)
       Max VN number:   0.24E+00 at (  10,  10,  10)
       Total Heat Release Rate:             85.275 kW
       Radiation Loss to Boundaries:       -36.219 kW
 
       Time Step    6196   February 21, 2021  20:01:14
       Step Size:    0.210E-01 s, Total Time:      30.00 s
       Pressure Iterations:      1
       Maximum Velocity Error:  0.00E+00 on Mesh   1 at (  10  10   6)
       Maximum Pressure Error:  0.47E-01 on Mesh   1 at (  19   8  20)
       ---------------------------------------------------------------
       Max CFL number:  0.21E+00 at (  12,  10,  19)
       Max divergence:  0.32E-02 at (  18,   3,  20)
       Min divergence: -0.36E-02 at (  16,   3,  20)
       Max VN number:   0.71E-01 at (  10,   5,  14)
 


 Time Stepping Wall Clock Time (s):      222.571
 Total Elapsed Wall Clock Time (s):      225.350

STOP: FDS completed successfully (CHID: burn_away_example)
