
 Fire Dynamics Simulator

 Current Date     : February 19, 2021  11:54:46
 Revision         : FDS6.7.5-0-g71f025606-release
 Revision Date    : Thu Aug 20 16:19:01 2020 -0400
 Compiler         : Intel ifort 19.1.1.216
 Compilation Date : Fri 08/21/2020  04:51 PM

 MPI Enabled;    Number of MPI Processes:       1
 OpenMP Enabled; Number of OpenMP Threads:      1

 MPI version: 3.1
 MPI library version: Intel(R) MPI Library 2019 Update 7 for Windows* OS


 Job TITLE        : 
 Job ID string    : meshres


 Grid Dimensions, Mesh     1

   Cells in the X Direction           144
   Cells in the Y Direction            24
   Cells in the Z Direction            48
   Number of Grid Cells            165888


 Physical Dimensions, Mesh     1

   Length (m)                       7.200
   Width  (m)                       1.200
   Height (m)                       2.400
   Initial Time Step (s)            0.051

Total Number of Grid Cells        165888


 Miscellaneous Parameters

   Simulation Start Time (s)          0.0
   Simulation End Time (s)           60.0
   LES Calculation
   Eddy Viscosity:           Deardorff Model (C_DEARDORFF = 0.10)
   Near-wall Eddy Viscosity: Smagorinsky with Van Driest damping (C_SMAGORINSKY = 0.20)
   Turbulent Prandtl Number:         0.50
   Turbulent Schmidt Number:         0.50
   Ambient Temperature (C):         20.00


 Mass Fraction Transformation Matrix to Convert Species Mixtures (Columns) to Primitive Species (Rows)

                         AIR       REAC_FUE  PRODUCTS
   REAC_FUEL             0.000000  1.000000  0.000000
   NITROGEN              0.762470  0.000000  0.720736
   OXYGEN                0.230997  0.000000  0.000000
   CARBON DIOXIDE        0.000591  0.000000  0.150715
   CARBON MONOXIDE       0.000000  0.000000  0.000000
   WATER VAPOR           0.005941  0.000000  0.128549
   SOOT                  0.000000  0.000000  0.000000
   HYDROGEN              0.000000  0.000000  0.000000


 Primitive Species Information

   REAC_FUEL
   Gas Species
   Molecular Weight (g/mol)            16.04246
   Ambient Density (kg/m^3)            0.667
   Enthalpy of Formation (J/kg)       -2.42E+06

   NITROGEN
   Gas Species
   Molecular Weight (g/mol)            28.01340
   Ambient Density (kg/m^3)            1.165
   Enthalpy of Formation (J/kg)        0.00E+00

   OXYGEN
   Gas Species
   Molecular Weight (g/mol)            31.99880
   Ambient Density (kg/m^3)            1.330
   Enthalpy of Formation (J/kg)        0.00E+00

   CARBON DIOXIDE
   Gas Species
   Molecular Weight (g/mol)            44.00950
   Ambient Density (kg/m^3)            1.830
   Enthalpy of Formation (J/kg)       -8.94E+06

   CARBON MONOXIDE
   Gas Species
   Molecular Weight (g/mol)            28.01010
   Ambient Density (kg/m^3)            1.164
   Enthalpy of Formation (J/kg)       -3.95E+06

   WATER VAPOR
   Gas Species
   Molecular Weight (g/mol)            18.01528
   Ambient Density (kg/m^3)            0.749
   Enthalpy of Formation (J/kg)       -1.34E+07

   SOOT
   Gas Species
   Molecular Weight (g/mol)            10.91042
   Ambient Density (kg/m^3)            0.454
   Enthalpy of Formation (J/kg)        0.00E+00

   HYDROGEN
   Gas Species
   Molecular Weight (g/mol)             2.01588
   Ambient Density (kg/m^3)            0.084
   Enthalpy of Formation (J/kg)        0.00E+00


 Tracked (Lumped) Species Information

   AIR
   Molecular Weight (g/mol)            28.75199
   Ambient Density (kg/m^3)            1.195
   Initial Mass Fraction               1.000
   Enthalpy of Formation (J/kg)     -8.50E+04

   Sub Species                    Mass Fraction     Mole Fraction
   NITROGEN                       7.624701E-01      7.825730E-01
   OXYGEN                         2.309974E-01      2.075589E-01
   CARBON DIOXIDE                 5.914651E-04      3.864120E-04
   WATER VAPOR                    5.940984E-03      9.481679E-03
 
     Viscosity (kg/m/s) Ambient,  293 K:  1.80E-05
                                  500 K:  2.61E-05
                                 1000 K:  4.13E-05
                                 1500 K:  5.37E-05
   Therm. Cond. (W/m/K) Ambient,  293 K:  2.56E-02
                                  500 K:  3.81E-02
                                 1000 K:  6.69E-02
                                 1500 K:  9.25E-02
        Enthalpy (J/kg) Ambient,  293 K: -9.01E+04
                                  500 K:  1.22E+05
                                 1000 K:  6.72E+05
                                 1500 K:  1.27E+06
    Spec. Heat (J/kg/K) Ambient,  293 K:  1.02E+03
                                  500 K:  1.04E+03
                                 1000 K:  1.16E+03
                                 1500 K:  1.23E+03
   Diff. Coeff. (m^2/s) Ambient,  293 K:  1.99E-05
                                  500 K:  4.96E-05
                                 1000 K:  1.58E-04
                                 1500 K:  3.09E-04

   REAC_FUEL
   Molecular Weight (g/mol)            16.04246
   Ambient Density (kg/m^3)            0.667
   Initial Mass Fraction               0.000
   Enthalpy of Formation (J/kg)     -2.42E+06

   Sub Species                    Mass Fraction     Mole Fraction
   REAC_FUEL                      1.000000E+00      1.000000E+00
 
     Viscosity (kg/m/s) Ambient,  293 K:  1.32E-05
                                  500 K:  1.90E-05
                                 1000 K:  2.99E-05
                                 1500 K:  3.89E-05
   Therm. Cond. (W/m/K) Ambient,  293 K:  3.36E-02
                                  500 K:  4.86E-02
                                 1000 K:  7.63E-02
                                 1500 K:  9.93E-02
        Enthalpy (J/kg) Ambient,  293 K: -2.43E+06
                                  500 K: -2.05E+06
                                 1000 K: -1.15E+06
                                 1500 K: -2.38E+05
    Spec. Heat (J/kg/K) Ambient,  293 K:  1.81E+03
                                  500 K:  1.81E+03
                                 1000 K:  1.81E+03
                                 1500 K:  1.81E+03
   Diff. Coeff. (m^2/s) Ambient,  293 K:  2.33E-05
                                  500 K:  5.78E-05
                                 1000 K:  1.84E-04
                                 1500 K:  3.60E-04

   PRODUCTS
   Molecular Weight (g/mol)            27.55701
   Ambient Density (kg/m^3)            1.146
   Initial Mass Fraction               0.000
   Enthalpy of Formation (J/kg)     -3.07E+06

   Sub Species                    Mass Fraction     Mole Fraction
   NITROGEN                       7.207360E-01      7.089940E-01
   CARBON DIOXIDE                 1.507153E-01      9.437199E-02
   CARBON MONOXIDE                0.000000E+00      0.000000E+00
   WATER VAPOR                    1.285486E-01      1.966340E-01
   SOOT                           0.000000E+00      0.000000E+00
 
     Viscosity (kg/m/s) Ambient,  293 K:  1.60E-05
                                  500 K:  2.37E-05
                                 1000 K:  3.89E-05
                                 1500 K:  5.15E-05
   Therm. Cond. (W/m/K) Ambient,  293 K:  2.35E-02
                                  500 K:  3.62E-02
                                 1000 K:  6.76E-02
                                 1500 K:  9.76E-02
        Enthalpy (J/kg) Ambient,  293 K: -3.08E+06
                                  500 K: -2.84E+06
                                 1000 K: -2.22E+06
                                 1500 K: -1.53E+06
    Spec. Heat (J/kg/K) Ambient,  293 K:  1.12E+03
                                  500 K:  1.17E+03
                                 1000 K:  1.32E+03
                                 1500 K:  1.43E+03
   Diff. Coeff. (m^2/s) Ambient,  293 K:  1.96E-05
                                  500 K:  5.00E-05
                                 1000 K:  1.62E-04
                                 1500 K:  3.19E-04


 Gas Phase Reaction Information

   AFT NIST Multi-Floor FDS5 Validation

   Reaction ID:  METHANE

   Fuel                                           Heat of Combustion (kJ/kg)
   REAC_FUEL                                                      52259.3517

   Stoichiometry

   Primitive Species Stoich. Coeff.
   Species ID                                                          Molar
   REAC_FUEL                                                       -1.000000
   OXYGEN                                                          -2.000000
   CARBON DIOXIDE                                                   1.000000
   WATER VAPOR                                                      2.000000

   Tracked (Lumped) Species Stoich. Coeff.
   Species ID                                             Molar         Mass
   AIR                                                -9.635819   -17.269730
   REAC_FUEL                                          -1.000000    -1.000000
   PRODUCTS                                           10.635819    18.269730

   Reaction Kinetics

   Arrhenius Parameters
   Pre-exponential:    Infinite
   Activation Energy:  N/A

   ODE Solver:  EXPLICIT EULER
   Extinction Model:  EXTINCTION 2
   Auto-Ignition Temperature (K):       0.0
   Critical Flame Temperature (K):   1700.2


 Material Information


 Surface Conditions

   0 INERT (DEFAULT)

   1 Surface01
     Wall or Vent Temperature (C)   300.0
     HRR Per Unit Area (kW/m2)        400.0
     REAC_FUEL Mass Flux (kg/s/m2)   7.65E-03

   2 OPEN
     Passive Vent to Atmosphere

   3 MIRROR
     Symmetry Plane

   4 INTERPOLATED

   5 PERIODIC

   6 HVAC

   7 MASSLESS TRACER

   8 DROPLET

   9 EVACUATION_OUTFLOW
     Normal Velocity (m/s)         0.000

  10 MASSLESS TARGET

  11 PERIODIC FLOW ONLY


 Device Properties

   1 Acme Heat
     RTI (m-s)^1/2                   50.0
     Activation Temperature (C)      50.0
     Smokeview ID                heat_detector


 Device Coordinates

     1 Coords:      6.700000      0.000000      2.350000, Make: Acme Heat, ID: HD, Quantity: LINK TEMPERATURE


 Slice File Information, Mesh     1

   Sampling Interval (s)             0.060

   1 Nodes:   0 144  12  12   0  48, Quantity: TEMPERATURE
   2 Nodes:   0 144  12  12   0  48, Quantity: U-VELOCITY
   3 Nodes:   0 144  12  12   0  48, Quantity: V-VELOCITY
   4 Nodes:   0 144  12  12   0  48, Quantity: W-VELOCITY


 Radiation Model Information

   Number of control angles  104
   Time step increment         3
   Angle increment             5
   Theta band N_phi   Solid angle
     1:        4     0.120
     2:       12     0.114
     3:       16     0.127
     4:       20     0.120
     5:       20     0.120
     6:       16     0.127
     7:       12     0.114
     8:        4     0.120
   Using gray gas absorption.
   Mean beam length  0.100 m
 
 

 Run Time Diagnostics

       Time Step       1   February 19, 2021  11:54:49
       Step Size:    0.510E-01 s, Total Time:       0.05 s
       Pressure Iterations:      1
       Maximum Velocity Error:  0.16E-02 on Mesh   1 at (   5  15   4)
       Maximum Pressure Error:  0.15E-02 on Mesh   1 at (   1   1  48)
       ---------------------------------------------------------------
       Max CFL number:  0.20E-01 at (  21,   7,  18)
       Max divergence:  0.71E-02 at (   6,   9,   5)
       Min divergence: -0.14E-05 at ( 104,  10,   9)
       Max VN number:   0.18E-01 at ( 104,  10,   9)
       Radiation Loss to Boundaries:         0.003 kW
 
       Time Step       2   February 19, 2021  11:54:49
       Step Size:    0.510E-01 s, Total Time:       0.10 s
       Pressure Iterations:      1
       Maximum Velocity Error:  0.13E-01 on Mesh   1 at (  14  13   4)
       Maximum Pressure Error:  0.91E+00 on Mesh   1 at (  14  10   5)
       ---------------------------------------------------------------
       Max CFL number:  0.20E-01 at (  21,   7,  18)
       Max divergence:  0.76E+00 at (   7,  13,   5)
       Min divergence: -0.17E-05 at (  15,  10,   4)
       Max VN number:   0.18E-01 at ( 104,  10,   9)
       Total Heat Release Rate:              2.742 kW
       Radiation Loss to Boundaries:         0.003 kW
 
       Time Step       3   February 19, 2021  11:54:50
       Step Size:    0.510E-01 s, Total Time:       0.15 s
       Pressure Iterations:      1
       Maximum Velocity Error:  0.14E-01 on Mesh   1 at (  14   8   4)
       Maximum Pressure Error:  0.49E+02 on Mesh   1 at (   5   8   5)
       ---------------------------------------------------------------
       Max CFL number:  0.69E-01 at (   9,  17,   5)
       Max divergence:  0.17E-01 at (   7,  10,   5)
       Min divergence: -0.14E-05 at ( 104,  10,   9)
       Max VN number:   0.18E-01 at ( 104,  10,   9)
       Radiation Loss to Boundaries:         0.002 kW
 
       Time Step       4   February 19, 2021  11:54:51
       Step Size:    0.510E-01 s, Total Time:       0.20 s
       Pressure Iterations:      4
       Maximum Velocity Error:  0.21E-01 on Mesh   1 at (  14  12   4)
       Maximum Pressure Error:  0.66E+03 on Mesh   1 at (   5   8   5)
       ---------------------------------------------------------------
       Max CFL number:  0.31E-01 at (  15,  13,   5)
       Max divergence:  0.90E+01 at (   7,  13,   5)
       Min divergence: -0.14E-05 at ( 104,  10,   9)
       Max VN number:   0.18E-01 at (   9,  18,   5)
       Total Heat Release Rate:             32.587 kW
       Radiation Loss to Boundaries:        -0.202 kW
 
       Time Step       5   February 19, 2021  11:54:52
       Step Size:    0.510E-01 s, Total Time:       0.26 s
       Pressure Iterations:      7
       Maximum Velocity Error:  0.23E-01 on Mesh   1 at (   5  13   4)
       Maximum Pressure Error:  0.27E+04 on Mesh   1 at (   5  13   5)
       ---------------------------------------------------------------
       Max CFL number:  0.68E+00 at (  14,   9,   5)
       Max divergence:  0.96E+00 at (  12,  10,   5)
       Min divergence: -0.33E+00 at (  10,  17,   5)
       Max VN number:   0.98E-01 at (  15,  15,   5)
       Total Heat Release Rate:              6.073 kW
       Radiation Loss to Boundaries:        -2.053 kW
 
       Time Step       6   February 19, 2021  11:54:53
       Step Size:    0.510E-01 s, Total Time:       0.31 s
       Pressure Iterations:      6
       Maximum Velocity Error:  0.23E-01 on Mesh   1 at (  14  12   4)
       Maximum Pressure Error:  0.76E+04 on Mesh   1 at (   5   8   5)
       ---------------------------------------------------------------
       Max CFL number:  0.16E+00 at (  12,  13,   5)
       Max divergence:  0.87E+01 at (   8,  13,   5)
       Min divergence: -0.14E-05 at ( 104,  10,   9)
       Max VN number:   0.31E-01 at (  15,  10,   5)
       Total Heat Release Rate:             38.410 kW
       Radiation Loss to Boundaries:        -3.210 kW
 
       Time Step       7   February 19, 2021  11:54:54
       Step Size:    0.510E-01 s, Total Time:       0.36 s
       Pressure Iterations:     10
       Maximum Velocity Error:  0.17E-01 on Mesh   1 at (   5  12   4)
       Maximum Pressure Error:  0.45E+04 on Mesh   1 at (   5  11   5)
       ---------------------------------------------------------------
       Max CFL number:  0.68E+00 at (   7,  13,   5)
       Max divergence:  0.46E+00 at (   5,   7,   5)
       Min divergence: -0.55E+01 at (   7,  13,   5)
       Max VN number:   0.87E-01 at (   8,   7,   5)
       Total Heat Release Rate:              8.906 kW
       Radiation Loss to Boundaries:       -20.318 kW
 
       Time Step       8   February 19, 2021  11:54:55
       Step Size:    0.426E-01 s, Total Time:       0.40 s
       Pressure Iterations:      8
       Maximum Velocity Error:  0.21E-01 on Mesh   1 at (   5  12   4)
       Maximum Pressure Error:  0.63E+04 on Mesh   1 at (   5   8   5)
       ---------------------------------------------------------------
       Max CFL number:  0.66E+00 at (   5,  13,   5)
       Max divergence:  0.19E+01 at (   9,  12,   5)
       Min divergence: -0.34E-01 at (   5,  13,   6)
       Max VN number:   0.76E-01 at (   5,   8,   6)
       Total Heat Release Rate:             13.669 kW
       Radiation Loss to Boundaries:        -5.610 kW
 
       Time Step       9   February 19, 2021  11:54:56
       Step Size:    0.469E-01 s, Total Time:       0.45 s
       Pressure Iterations:      4
       Maximum Velocity Error:  0.24E-01 on Mesh   1 at (   5  16   4)
       Maximum Pressure Error:  0.51E+04 on Mesh   1 at (  14   8   5)
       ---------------------------------------------------------------
       Max CFL number:  0.46E+00 at (   6,  13,   5)
       Max divergence:  0.67E+00 at (   4,   8,   5)
       Min divergence: -0.18E+01 at (  12,  17,   5)
       Max VN number:   0.15E+00 at (   4,  13,   5)
       Total Heat Release Rate:              2.370 kW
       Radiation Loss to Boundaries:        -3.944 kW
 
       Time Step      10   February 19, 2021  11:54:58
       Step Size:    0.510E-01 s, Total Time:       0.50 s
       Pressure Iterations:      4
       Maximum Velocity Error:  0.15E-01 on Mesh   1 at (   5   9   4)
       Maximum Pressure Error:  0.55E+04 on Mesh   1 at (  14  17   5)
       ---------------------------------------------------------------
       Max CFL number:  0.50E+00 at (   5,  13,   5)
       Max divergence:  0.39E+01 at (   8,  13,   5)
       Min divergence: -0.42E+00 at (   4,  13,   5)
       Max VN number:   0.16E+00 at (   4,  13,   5)
       Total Heat Release Rate:             17.775 kW
       Radiation Loss to Boundaries:        -2.501 kW
 
       Time Step      20   February 19, 2021  11:55:08
       Step Size:    0.194E-01 s, Total Time:       0.80 s
       Pressure Iterations:      3
       Maximum Velocity Error:  0.63E-02 on Mesh   1 at (   8   8   4)
       Maximum Pressure Error:  0.31E+04 on Mesh   1 at (   7  15   5)
       ---------------------------------------------------------------
       Max CFL number:  0.91E+00 at (   5,  17,   9)
       Max divergence:  0.13E+02 at (  14,   9,   5)
       Min divergence: -0.33E+01 at (   5,  17,   8)
       Max VN number:   0.44E+00 at (   5,  17,   9)
       Total Heat Release Rate:             54.791 kW
       Radiation Loss to Boundaries:       -20.189 kW
 
       Time Step      30   February 19, 2021  11:55:16
       Step Size:    0.168E-01 s, Total Time:       0.98 s
       Pressure Iterations:      2
       Maximum Velocity Error:  0.16E-01 on Mesh   1 at (  10  16   4)
       Maximum Pressure Error:  0.15E+04 on Mesh   1 at (   6  16   5)
       ---------------------------------------------------------------
       Max CFL number:  0.98E+00 at (   8,   8,   8)
       Max divergence:  0.17E+02 at (   5,  13,   5)
       Min divergence: -0.59E+01 at (   8,   8,   8)
       Max VN number:   0.38E+00 at (   8,   8,   7)
       Total Heat Release Rate:             66.310 kW
       Radiation Loss to Boundaries:       -21.202 kW
 
       Time Step      40   February 19, 2021  11:55:25
       Step Size:    0.124E-01 s, Total Time:       1.13 s
       Pressure Iterations:      2
       Maximum Velocity Error:  0.90E-02 on Mesh   1 at (  13  13   4)
       Maximum Pressure Error:  0.98E+03 on Mesh   1 at (  13   9   5)
       ---------------------------------------------------------------
       Max CFL number:  0.86E+00 at (  12,  10,  10)
       Max divergence:  0.14E+02 at (  11,   9,   5)
       Min divergence: -0.57E+01 at (  12,  10,   9)
       Max VN number:   0.38E+00 at (  12,  10,  10)
       Total Heat Release Rate:             60.503 kW
       Radiation Loss to Boundaries:       -19.242 kW
 
       Time Step      50   February 19, 2021  11:55:33
       Step Size:    0.136E-01 s, Total Time:       1.26 s
       Pressure Iterations:      3
       Maximum Velocity Error:  0.10E-01 on Mesh   1 at (   7  10   4)
       Maximum Pressure Error:  0.40E+04 on Mesh   1 at (   6  11   5)
       ---------------------------------------------------------------
       Max CFL number:  0.93E+00 at (   6,  13,  10)
       Max divergence:  0.12E+02 at (   8,   9,   5)
       Min divergence: -0.54E+01 at (  10,  13,   9)
       Max VN number:   0.40E+00 at (   9,  12,  11)
       Total Heat Release Rate:             62.377 kW
       Radiation Loss to Boundaries:       -20.508 kW
 
       Time Step      60   February 19, 2021  11:55:42
       Step Size:    0.972E-02 s, Total Time:       1.37 s
       Pressure Iterations:      2
       Maximum Velocity Error:  0.17E-01 on Mesh   1 at (  12  15   4)
       Maximum Pressure Error:  0.32E+04 on Mesh   1 at (   6  11   5)
       ---------------------------------------------------------------
       Max CFL number:  0.92E+00 at (  10,  11,  11)
       Max divergence:  0.15E+02 at (   6,  13,   5)
       Min divergence: -0.53E+01 at (   7,  13,   8)
       Max VN number:   0.32E+00 at (   9,  12,  15)
       Total Heat Release Rate:             65.983 kW
       Radiation Loss to Boundaries:       -21.836 kW
 
       Time Step      70   February 19, 2021  11:55:51
       Step Size:    0.856E-02 s, Total Time:       1.46 s
       Pressure Iterations:      2
       Maximum Velocity Error:  0.14E-01 on Mesh   1 at (  11  14   4)
       Maximum Pressure Error:  0.44E+04 on Mesh   1 at (   8  12  18)
       ---------------------------------------------------------------
       Max CFL number:  0.94E+00 at (   8,  11,  16)
       Max divergence:  0.13E+02 at (  10,  15,   5)
       Min divergence: -0.58E+01 at (   8,  12,  17)
       Max VN number:   0.27E+00 at (   8,  12,  17)
       Total Heat Release Rate:             78.048 kW
       Radiation Loss to Boundaries:       -24.420 kW
 
       Time Step      80   February 19, 2021  11:55:59
       Step Size:    0.736E-02 s, Total Time:       1.53 s
       Pressure Iterations:      2
       Maximum Velocity Error:  0.13E-01 on Mesh   1 at (  12  10   4)
       Maximum Pressure Error:  0.55E+04 on Mesh   1 at (  13  16   5)
       ---------------------------------------------------------------
       Max CFL number:  0.94E+00 at (   7,  11,  18)
       Max divergence:  0.14E+02 at (   9,  13,  11)
       Min divergence: -0.60E+01 at (  11,  11,   6)
       Max VN number:   0.28E+00 at (   7,  12,  19)
       Total Heat Release Rate:             98.595 kW
       Radiation Loss to Boundaries:       -32.543 kW
 
       Time Step      90   February 19, 2021  11:56:07
       Step Size:    0.609E-02 s, Total Time:       1.60 s
       Pressure Iterations:      2
       Maximum Velocity Error:  0.20E-01 on Mesh   1 at (  13  16   4)
       Maximum Pressure Error:  0.19E+04 on Mesh   1 at (  13  16   5)
       ---------------------------------------------------------------
       Max CFL number:  0.87E+00 at (   7,  11,  22)
       Max divergence:  0.13E+02 at (   9,  12,  11)
       Min divergence: -0.69E+01 at (  11,  14,   6)
       Max VN number:   0.25E+00 at (   6,  12,  20)
       Total Heat Release Rate:            103.918 kW
       Radiation Loss to Boundaries:       -34.856 kW
 
       Time Step     100   February 19, 2021  11:56:16
       Step Size:    0.609E-02 s, Total Time:       1.66 s
       Pressure Iterations:      2
       Maximum Velocity Error:  0.60E-02 on Mesh   1 at (  11  13   4)
       Maximum Pressure Error:  0.14E+04 on Mesh   1 at (   9  11  18)
       ---------------------------------------------------------------
       Max CFL number:  0.10E+01 at (   9,  13,  16)
       Max divergence:  0.15E+02 at (   6,  11,   5)
       Min divergence: -0.63E+01 at (   8,  12,  15)
       Max VN number:   0.28E+00 at (   6,  12,  25)
       Total Heat Release Rate:             93.067 kW
       Radiation Loss to Boundaries:       -29.604 kW
 
       Time Step     200   February 19, 2021  11:57:39
       Step Size:    0.565E-02 s, Total Time:       2.20 s
       Pressure Iterations:      2
       Maximum Velocity Error:  0.69E-02 on Mesh   1 at (  10  15   4)
       Maximum Pressure Error:  0.13E+04 on Mesh   1 at (   5  15   5)
       ---------------------------------------------------------------
       Max CFL number:  0.86E+00 at (   6,  14,  21)
       Max divergence:  0.18E+02 at (   7,  11,  14)
       Min divergence: -0.55E+01 at (   9,  14,  32)
       Max VN number:   0.34E+00 at (   8,  14,  48)
       Total Heat Release Rate:            100.442 kW
       Radiation Loss to Boundaries:       -32.301 kW
 
       Time Step     300   February 19, 2021  11:59:04
       Step Size:    0.556E-02 s, Total Time:       2.77 s
       Pressure Iterations:      2
       Maximum Velocity Error:  0.16E-01 on Mesh   1 at (  11  10   4)
       Maximum Pressure Error:  0.19E+04 on Mesh   1 at (   5  16   5)
       ---------------------------------------------------------------
       Max CFL number:  0.91E+00 at (   6,  12,  38)
       Max divergence:  0.14E+02 at (  11,  16,   5)
       Min divergence: -0.53E+01 at (   6,  12,  22)
       Max VN number:   0.23E+00 at (   7,  10,  48)
       Total Heat Release Rate:            105.137 kW
       Radiation Loss to Boundaries:       -34.698 kW
 
       Time Step     400   February 19, 2021  12:00:31
       Step Size:    0.664E-02 s, Total Time:       3.37 s
       Pressure Iterations:      2
       Maximum Velocity Error:  0.17E-01 on Mesh   1 at (   9  14   4)
       Maximum Pressure Error:  0.33E+04 on Mesh   1 at (   5  16   5)
       ---------------------------------------------------------------
       Max CFL number:  0.82E+00 at (   7,  13,  23)
       Max divergence:  0.20E+02 at (   9,  12,   6)
       Min divergence: -0.60E+01 at (  10,  15,   7)
       Max VN number:   0.33E+00 at (   4,   9,  48)
       Total Heat Release Rate:             99.735 kW
       Radiation Loss to Boundaries:       -31.925 kW
 
       Time Step     500   February 19, 2021  12:01:58
       Step Size:    0.634E-02 s, Total Time:       3.99 s
       Pressure Iterations:      2
       Maximum Velocity Error:  0.68E-02 on Mesh   1 at (   6  16   4)
       Maximum Pressure Error:  0.43E+04 on Mesh   1 at (   5   9   5)
       ---------------------------------------------------------------
       Max CFL number:  0.87E+00 at (   5,  11,  33)
       Max divergence:  0.18E+02 at (   8,   8,   5)
       Min divergence: -0.52E+01 at (  11,  12,   9)
       Max VN number:   0.26E+00 at (   7,   4,  48)
       Total Heat Release Rate:             82.828 kW
       Radiation Loss to Boundaries:       -26.353 kW
 
       Time Step     600   February 19, 2021  12:03:27
       Step Size:    0.646E-02 s, Total Time:       4.67 s
       Pressure Iterations:      2
       Maximum Velocity Error:  0.75E-02 on Mesh   1 at (  10   9   4)
       Maximum Pressure Error:  0.42E+04 on Mesh   1 at (  13  17   5)
       ---------------------------------------------------------------
       Max CFL number:  0.93E+00 at (   5,  18,  22)
       Max divergence:  0.18E+02 at (   7,   9,   5)
       Min divergence: -0.56E+01 at (   8,  10,   7)
       Max VN number:   0.28E+00 at (   8,  16,  25)
       Total Heat Release Rate:             96.043 kW
       Radiation Loss to Boundaries:       -31.023 kW
 
       Time Step     700   February 19, 2021  12:04:58
       Step Size:    0.636E-02 s, Total Time:       5.26 s
       Pressure Iterations:      2
       Maximum Velocity Error:  0.99E-02 on Mesh   1 at (   7  11   4)
       Maximum Pressure Error:  0.19E+04 on Mesh   1 at (  14   8   5)
       ---------------------------------------------------------------
       Max CFL number:  0.89E+00 at (   8,   6,  45)
       Max divergence:  0.12E+02 at (  13,  17,   5)
       Min divergence: -0.61E+01 at (   8,  16,  19)
       Max VN number:   0.33E+00 at (   8,   8,  48)
       Total Heat Release Rate:             89.988 kW
       Radiation Loss to Boundaries:       -29.297 kW
 
       Time Step     800   February 19, 2021  12:06:25
       Step Size:    0.715E-02 s, Total Time:       5.89 s
       Pressure Iterations:      4
       Maximum Velocity Error:  0.22E-01 on Mesh   1 at (   5  10   4)
       Maximum Pressure Error:  0.60E+04 on Mesh   1 at (   5  10   5)
       ---------------------------------------------------------------
       Max CFL number:  0.91E+00 at (   8,  15,  23)
       Max divergence:  0.13E+02 at (  12,  15,   5)
       Min divergence: -0.36E+01 at (   9,   9,  14)
       Max VN number:   0.30E+00 at (  11,   9,  48)
       Total Heat Release Rate:            113.859 kW
       Radiation Loss to Boundaries:       -38.951 kW
 
       Time Step     900   February 19, 2021  12:07:51
       Step Size:    0.630E-02 s, Total Time:       6.54 s
       Pressure Iterations:      2
       Maximum Velocity Error:  0.82E-02 on Mesh   1 at (  10  15   4)
       Maximum Pressure Error:  0.60E+03 on Mesh   1 at (   6  14  22)
       ---------------------------------------------------------------
       Max CFL number:  0.86E+00 at (   6,  14,  23)
       Max divergence:  0.14E+02 at (   9,  10,   8)
       Min divergence: -0.62E+01 at (  10,  14,   7)
       Max VN number:   0.24E+00 at (   7,  17,  16)
       Total Heat Release Rate:            103.282 kW
       Radiation Loss to Boundaries:       -33.714 kW
 
       Time Step    1000   February 19, 2021  12:09:19
       Step Size:    0.602E-02 s, Total Time:       7.20 s
       Pressure Iterations:      1
       Maximum Velocity Error:  0.21E-01 on Mesh   1 at (   8  14   4)
       Maximum Pressure Error:  0.65E+04 on Mesh   1 at (  13  17   5)
       ---------------------------------------------------------------
       Max CFL number:  0.84E+00 at (   7,  10,  22)
       Max divergence:  0.17E+02 at (  13,  10,   5)
       Min divergence: -0.46E+01 at (  10,  15,  13)
       Max VN number:   0.24E+00 at (   9,   8,  20)
       Total Heat Release Rate:            101.318 kW
       Radiation Loss to Boundaries:       -33.944 kW
 
       Time Step    1100   February 19, 2021  12:10:45
       Step Size:    0.729E-02 s, Total Time:       7.86 s
       Pressure Iterations:      2
       Maximum Velocity Error:  0.12E-01 on Mesh   1 at (   6   9   4)
       Maximum Pressure Error:  0.36E+04 on Mesh   1 at (   6   9   5)
       ---------------------------------------------------------------
       Max CFL number:  0.87E+00 at (   7,  14,  19)
       Max divergence:  0.13E+02 at (   6,  11,   5)
       Min divergence: -0.49E+01 at (  10,  11,   7)
       Max VN number:   0.35E+00 at (   8,  12,  48)
       Total Heat Release Rate:             92.111 kW
       Radiation Loss to Boundaries:       -31.042 kW
 
       Time Step    1200   February 19, 2021  12:12:12
       Step Size:    0.629E-02 s, Total Time:       8.50 s
       Pressure Iterations:      2
       Maximum Velocity Error:  0.18E-01 on Mesh   1 at (  10  12   4)
       Maximum Pressure Error:  0.43E+04 on Mesh   1 at (   5  16   5)
       ---------------------------------------------------------------
       Max CFL number:  0.83E+00 at (   7,  13,  40)
       Max divergence:  0.21E+02 at (  10,  13,   6)
       Min divergence: -0.50E+01 at (  10,  10,  12)
       Max VN number:   0.28E+00 at (   9,  10,  48)
       Total Heat Release Rate:            107.592 kW
       Radiation Loss to Boundaries:       -37.047 kW
 
       Time Step    1300   February 19, 2021  12:13:41
       Step Size:    0.606E-02 s, Total Time:       9.13 s
       Pressure Iterations:      2
       Maximum Velocity Error:  0.12E-01 on Mesh   1 at (   8  10   4)
       Maximum Pressure Error:  0.14E+04 on Mesh   1 at (   5  16   5)
       ---------------------------------------------------------------
       Max CFL number:  0.92E+00 at (   6,  15,  18)
       Max divergence:  0.17E+02 at (   5,  11,   5)
       Min divergence: -0.84E+01 at (   6,  15,  19)
       Max VN number:   0.25E+00 at (   9,  15,  13)
       Total Heat Release Rate:            116.534 kW
       Radiation Loss to Boundaries:       -39.116 kW
 
       Time Step    1400   February 19, 2021  12:15:11
       Step Size:    0.682E-02 s, Total Time:       9.76 s
       Pressure Iterations:      2
       Maximum Velocity Error:  0.11E-01 on Mesh   1 at (  10  10   4)
       Maximum Pressure Error:  0.17E+04 on Mesh   1 at (   5  17   5)
       ---------------------------------------------------------------
       Max CFL number:  0.89E+00 at (   6,  15,  18)
       Max divergence:  0.15E+02 at (   6,  13,   5)
       Min divergence: -0.55E+01 at (   8,  15,  22)
       Max VN number:   0.29E+00 at (   7,  15,  48)
       Total Heat Release Rate:             86.930 kW
       Radiation Loss to Boundaries:       -28.604 kW
 
       Time Step    1500   February 19, 2021  12:16:37
       Step Size:    0.676E-02 s, Total Time:      10.43 s
       Pressure Iterations:      2
       Maximum Velocity Error:  0.11E-01 on Mesh   1 at (   7  16   4)
       Maximum Pressure Error:  0.23E+04 on Mesh   1 at (   5   9   5)
       ---------------------------------------------------------------
       Max CFL number:  0.88E+00 at (   9,  12,  17)
       Max divergence:  0.17E+02 at (   6,  12,   5)
       Min divergence: -0.72E+01 at (   8,  11,  20)
       Max VN number:   0.27E+00 at (  14,   6,  48)
       Total Heat Release Rate:             93.928 kW
       Radiation Loss to Boundaries:       -30.907 kW
 
       Time Step    1600   February 19, 2021  12:18:04
       Step Size:    0.565E-02 s, Total Time:      11.06 s
       Pressure Iterations:      2
       Maximum Velocity Error:  0.13E-01 on Mesh   1 at (  11  10   4)
       Maximum Pressure Error:  0.21E+04 on Mesh   1 at (  12  17   5)
       ---------------------------------------------------------------
       Max CFL number:  0.84E+00 at (   8,  13,  32)
       Max divergence:  0.16E+02 at (   6,  14,   5)
       Min divergence: -0.51E+01 at (   9,  12,   8)
       Max VN number:   0.26E+00 at (   7,  13,  48)
       Total Heat Release Rate:             83.965 kW
       Radiation Loss to Boundaries:       -28.243 kW
 
       Time Step    1700   February 19, 2021  12:19:31
       Step Size:    0.649E-02 s, Total Time:      11.71 s
       Pressure Iterations:      2
       Maximum Velocity Error:  0.11E-01 on Mesh   1 at (   9  16   4)
       Maximum Pressure Error:  0.40E+04 on Mesh   1 at (   5  16   5)
       ---------------------------------------------------------------
       Max CFL number:  0.85E+00 at (   8,  12,  14)
       Max divergence:  0.16E+02 at (  13,  14,   5)
       Min divergence: -0.52E+01 at (   7,  13,  16)
       Max VN number:   0.23E+00 at (   9,  10,  15)
       Total Heat Release Rate:            104.178 kW
       Radiation Loss to Boundaries:       -35.767 kW
 
       Time Step    1800   February 19, 2021  12:20:59
       Step Size:    0.616E-02 s, Total Time:      12.34 s
       Pressure Iterations:      1
       Maximum Velocity Error:  0.20E-01 on Mesh   1 at (  12  16   4)
       Maximum Pressure Error:  0.92E+03 on Mesh   1 at (  12  10   5)
       ---------------------------------------------------------------
       Max CFL number:  0.86E+00 at (   8,  15,  18)
       Max divergence:  0.17E+02 at (   6,  12,   5)
       Min divergence: -0.56E+01 at (   7,  12,   7)
       Max VN number:   0.26E+00 at (   5,  17,  48)
       Total Heat Release Rate:             90.938 kW
       Radiation Loss to Boundaries:       -29.910 kW
 
       Time Step    1900   February 19, 2021  12:22:26
       Step Size:    0.712E-02 s, Total Time:      12.96 s
       Pressure Iterations:      2
       Maximum Velocity Error:  0.59E-02 on Mesh   1 at (   6  14   4)
       Maximum Pressure Error:  0.12E+04 on Mesh   1 at (   9  12  13)
       ---------------------------------------------------------------
       Max CFL number:  0.94E+00 at (   7,  12,  17)
       Max divergence:  0.14E+02 at (   6,  10,   5)
       Min divergence: -0.51E+01 at (   9,  14,   9)
       Max VN number:   0.39E+00 at (   6,  12,  48)
       Total Heat Release Rate:            105.359 kW
       Radiation Loss to Boundaries:       -36.373 kW
 
       Time Step    2000   February 19, 2021  12:23:53
       Step Size:    0.645E-02 s, Total Time:      13.61 s
       Pressure Iterations:      2
       Maximum Velocity Error:  0.13E-01 on Mesh   1 at (   9  11   4)
       Maximum Pressure Error:  0.52E+04 on Mesh   1 at (  14   8   5)
       ---------------------------------------------------------------
       Max CFL number:  0.98E+00 at (   9,  12,  16)
       Max divergence:  0.15E+02 at (  13,  10,   5)
       Min divergence: -0.48E+01 at (   8,  14,  21)
       Max VN number:   0.28E+00 at (   9,  12,  17)
       Total Heat Release Rate:            120.484 kW
       Radiation Loss to Boundaries:       -41.333 kW
 
       Time Step    2100   February 19, 2021  12:25:21
       Step Size:    0.635E-02 s, Total Time:      14.23 s
       Pressure Iterations:      2
       Maximum Velocity Error:  0.14E-01 on Mesh   1 at (   9   9   4)
       Maximum Pressure Error:  0.15E+04 on Mesh   1 at (   5  15   5)
       ---------------------------------------------------------------
       Max CFL number:  0.88E+00 at (   4,  14,  34)
       Max divergence:  0.13E+02 at (   9,   8,   5)
       Min divergence: -0.54E+01 at (   9,  10,  10)
       Max VN number:   0.22E+00 at (   8,   8,  48)
       Total Heat Release Rate:             94.070 kW
       Radiation Loss to Boundaries:       -32.152 kW
 
       Time Step    2200   February 19, 2021  12:26:49
       Step Size:    0.583E-02 s, Total Time:      14.86 s
       Pressure Iterations:      2
       Maximum Velocity Error:  0.19E-01 on Mesh   1 at (   5  15   4)
       Maximum Pressure Error:  0.35E+04 on Mesh   1 at (   5  15   5)
       ---------------------------------------------------------------
       Max CFL number:  0.89E+00 at (   6,  14,  28)
       Max divergence:  0.18E+02 at (   6,  12,   5)
       Min divergence: -0.55E+01 at (   9,  10,  12)
       Max VN number:   0.26E+00 at (   9,  12,  48)
       Total Heat Release Rate:            113.166 kW
       Radiation Loss to Boundaries:       -40.058 kW
 
       Time Step    2300   February 19, 2021  12:28:18
       Step Size:    0.582E-02 s, Total Time:      15.50 s
       Pressure Iterations:      2
       Maximum Velocity Error:  0.15E-01 on Mesh   1 at (   6  15   4)
       Maximum Pressure Error:  0.33E+04 on Mesh   1 at (  12   8   5)
       ---------------------------------------------------------------
       Max CFL number:  0.83E+00 at (   7,  14,  20)
       Max divergence:  0.14E+02 at (   8,  12,  10)
       Min divergence: -0.54E+01 at (   9,  14,  17)
       Max VN number:   0.21E+00 at (   1,  15,  43)
       Total Heat Release Rate:             99.066 kW
       Radiation Loss to Boundaries:       -33.853 kW
 
       Time Step    2400   February 19, 2021  12:29:47
       Step Size:    0.463E-02 s, Total Time:      16.14 s
       Pressure Iterations:      2
       Maximum Velocity Error:  0.13E-01 on Mesh   1 at (   9  11   4)
       Maximum Pressure Error:  0.62E+04 on Mesh   1 at (   6   9   5)
       ---------------------------------------------------------------
       Max CFL number:  0.88E+00 at (   7,  11,  23)
       Max divergence:  0.13E+02 at (   6,  15,   5)
       Min divergence: -0.60E+01 at (   8,  10,  24)
       Max VN number:   0.20E+00 at (   4,  18,  48)
       Total Heat Release Rate:            129.365 kW
       Radiation Loss to Boundaries:       -43.945 kW
 
       Time Step    2500   February 19, 2021  12:31:13
       Step Size:    0.617E-02 s, Total Time:      16.69 s
       Pressure Iterations:      2
       Maximum Velocity Error:  0.83E-02 on Mesh   1 at (  10  13   4)
       Maximum Pressure Error:  0.13E+04 on Mesh   1 at (  11  13   5)
       ---------------------------------------------------------------
       Max CFL number:  0.93E+00 at (   6,  12,  21)
       Max divergence:  0.16E+02 at (  11,   8,   5)
       Min divergence: -0.54E+01 at (   7,  15,   7)
       Max VN number:   0.26E+00 at (   8,  12,  20)
       Total Heat Release Rate:             94.968 kW
       Radiation Loss to Boundaries:       -31.692 kW
 
       Time Step    2600   February 19, 2021  12:32:41
       Step Size:    0.610E-02 s, Total Time:      17.29 s
       Pressure Iterations:      1
       Maximum Velocity Error:  0.18E-01 on Mesh   1 at (   6  14   4)
       Maximum Pressure Error:  0.21E+04 on Mesh   1 at (   5  17   5)
       ---------------------------------------------------------------
       Max CFL number:  0.83E+00 at (   7,  12,  19)
       Max divergence:  0.15E+02 at (   6,  13,   5)
       Min divergence: -0.51E+01 at (   8,  13,  19)
       Max VN number:   0.25E+00 at (   3,  16,  43)
       Total Heat Release Rate:             99.718 kW
       Radiation Loss to Boundaries:       -33.599 kW
 
       Time Step    2700   February 19, 2021  12:34:10
       Step Size:    0.502E-02 s, Total Time:      17.89 s
       Pressure Iterations:      2
       Maximum Velocity Error:  0.14E-01 on Mesh   1 at (  13  17   4)
       Maximum Pressure Error:  0.24E+04 on Mesh   1 at (  13  17   5)
       ---------------------------------------------------------------
       Max CFL number:  0.84E+00 at (   5,  13,  29)
       Max divergence:  0.19E+02 at (  10,  12,   6)
       Min divergence: -0.56E+01 at (   9,  11,   7)
       Max VN number:   0.19E+00 at (   5,   9,  36)
       Total Heat Release Rate:             95.980 kW
       Radiation Loss to Boundaries:       -32.727 kW
 
       Time Step    2800   February 19, 2021  12:35:40
       Step Size:    0.616E-02 s, Total Time:      18.51 s
       Pressure Iterations:      5
       Maximum Velocity Error:  0.13E-01 on Mesh   1 at (   5  15   4)
       Maximum Pressure Error:  0.71E+04 on Mesh   1 at (   5  15   5)
       ---------------------------------------------------------------
       Max CFL number:  0.88E+00 at (   7,  14,  15)
       Max divergence:  0.15E+02 at (  10,  16,   5)
       Min divergence: -0.58E+01 at (   9,  13,  19)
       Max VN number:   0.28E+00 at (   7,  14,  18)
       Total Heat Release Rate:             90.169 kW
       Radiation Loss to Boundaries:       -30.297 kW
 
       Time Step    2900   February 19, 2021  12:37:11
       Step Size:    0.602E-02 s, Total Time:      19.18 s
       Pressure Iterations:      1
       Maximum Velocity Error:  0.24E-01 on Mesh   1 at (  10  14   4)
       Maximum Pressure Error:  0.90E+03 on Mesh   1 at (   7  14  20)
       ---------------------------------------------------------------
       Max CFL number:  0.95E+00 at (   7,  14,  19)
       Max divergence:  0.15E+02 at (   9,   9,   5)
       Min divergence: -0.52E+01 at (  10,  14,  23)
       Max VN number:   0.28E+00 at (   8,  14,  48)
       Total Heat Release Rate:            102.313 kW
       Radiation Loss to Boundaries:       -35.453 kW
 
       Time Step    3000   February 19, 2021  12:38:46
       Step Size:    0.655E-02 s, Total Time:      19.80 s
       Pressure Iterations:      2
       Maximum Velocity Error:  0.90E-02 on Mesh   1 at (   6  14   4)
       Maximum Pressure Error:  0.20E+04 on Mesh   1 at (   5  15   5)
       ---------------------------------------------------------------
       Max CFL number:  0.84E+00 at (   6,  12,  40)
       Max divergence:  0.15E+02 at (   6,  12,   6)
       Min divergence: -0.52E+01 at (   8,  10,   6)
       Max VN number:   0.24E+00 at (   5,  13,  48)
       Total Heat Release Rate:            115.997 kW
       Radiation Loss to Boundaries:       -41.015 kW
 
       Time Step    3100   February 19, 2021  12:40:23
       Step Size:    0.586E-02 s, Total Time:      20.43 s
       Pressure Iterations:      2
       Maximum Velocity Error:  0.89E-02 on Mesh   1 at (   8  15   4)
       Maximum Pressure Error:  0.11E+04 on Mesh   1 at (   6  15  29)
       ---------------------------------------------------------------
       Max CFL number:  0.94E+00 at (   5,  15,  30)
       Max divergence:  0.16E+02 at (  13,  10,   5)
       Min divergence: -0.82E+01 at (   6,  15,  32)
       Max VN number:   0.31E+00 at (   6,  15,  31)
       Total Heat Release Rate:             93.080 kW
       Radiation Loss to Boundaries:       -30.450 kW
 
       Time Step    3200   February 19, 2021  12:41:58
       Step Size:    0.630E-02 s, Total Time:      21.03 s
       Pressure Iterations:      2
       Maximum Velocity Error:  0.95E-02 on Mesh   1 at (  10  13   4)
       Maximum Pressure Error:  0.11E+04 on Mesh   1 at (   8  16   5)
       ---------------------------------------------------------------
       Max CFL number:  0.87E+00 at (   4,  15,  26)
       Max divergence:  0.13E+02 at (  10,  16,   5)
       Min divergence: -0.44E+01 at (   6,  13,  12)
       Max VN number:   0.25E+00 at (   2,   6,  48)
       Total Heat Release Rate:             75.744 kW
       Radiation Loss to Boundaries:       -24.554 kW
 
       Time Step    3300   February 19, 2021  12:43:32
       Step Size:    0.590E-02 s, Total Time:      21.71 s
       Pressure Iterations:      2
       Maximum Velocity Error:  0.73E-02 on Mesh   1 at (   6  13   4)
       Maximum Pressure Error:  0.17E+04 on Mesh   1 at (   6  10   5)
       ---------------------------------------------------------------
       Max CFL number:  0.89E+00 at (   4,  16,  25)
       Max divergence:  0.17E+02 at (   5,  14,   5)
       Min divergence: -0.65E+01 at (   8,  14,  18)
       Max VN number:   0.26E+00 at (   4,  16,  25)
       Total Heat Release Rate:             88.957 kW
       Radiation Loss to Boundaries:       -30.126 kW
 
       Time Step    3400   February 19, 2021  12:45:05
       Step Size:    0.613E-02 s, Total Time:      22.30 s
       Pressure Iterations:      2
       Maximum Velocity Error:  0.20E-01 on Mesh   1 at (   7  10   4)
       Maximum Pressure Error:  0.10E+04 on Mesh   1 at (   5  13  34)
       ---------------------------------------------------------------
       Max CFL number:  0.89E+00 at (   8,  14,  29)
       Max divergence:  0.14E+02 at (   9,   9,   5)
       Min divergence: -0.46E+01 at (   8,  14,  10)
       Max VN number:   0.26E+00 at (   7,  16,  48)
       Total Heat Release Rate:             87.904 kW
       Radiation Loss to Boundaries:       -30.267 kW
 
       Time Step    3500   February 19, 2021  12:46:29
       Step Size:    0.659E-02 s, Total Time:      22.95 s
       Pressure Iterations:      5
       Maximum Velocity Error:  0.13E-01 on Mesh   1 at (   5  15   4)
       Maximum Pressure Error:  0.65E+04 on Mesh   1 at (   5  15   5)
       ---------------------------------------------------------------
       Max CFL number:  0.90E+00 at (   3,  11,  25)
       Max divergence:  0.13E+02 at (  13,  11,   5)
       Min divergence: -0.48E+01 at (   5,  15,  16)
       Max VN number:   0.30E+00 at (   7,  10,  48)
       Total Heat Release Rate:            113.107 kW
       Radiation Loss to Boundaries:       -38.217 kW
 
       Time Step    3600   February 19, 2021  12:47:52
       Step Size:    0.562E-02 s, Total Time:      23.59 s
       Pressure Iterations:      2
       Maximum Velocity Error:  0.13E-01 on Mesh   1 at (   7  13   4)
       Maximum Pressure Error:  0.36E+04 on Mesh   1 at (   6   9   5)
       ---------------------------------------------------------------
       Max CFL number:  0.90E+00 at (   3,  13,  23)
       Max divergence:  0.17E+02 at (   9,   9,   5)
       Min divergence: -0.71E+01 at (   7,  14,  31)
       Max VN number:   0.27E+00 at (   3,  13,  22)
       Total Heat Release Rate:            105.619 kW
       Radiation Loss to Boundaries:       -35.730 kW
 
       Time Step    3700   February 19, 2021  12:49:14
       Step Size:    0.722E-02 s, Total Time:      24.23 s
       Pressure Iterations:      2
       Maximum Velocity Error:  0.83E-02 on Mesh   1 at (   7  12   4)
       Maximum Pressure Error:  0.34E+04 on Mesh   1 at (   6  12   5)
       ---------------------------------------------------------------
       Max CFL number:  0.92E+00 at (   6,  17,  38)
       Max divergence:  0.16E+02 at (  12,  14,   5)
       Min divergence: -0.60E+01 at (   8,  13,  16)
       Max VN number:   0.35E+00 at (   9,  12,  16)
       Total Heat Release Rate:             99.473 kW
       Radiation Loss to Boundaries:       -33.753 kW
 
       Time Step    3800   February 19, 2021  12:50:37
       Step Size:    0.565E-02 s, Total Time:      24.84 s
       Pressure Iterations:      2
       Maximum Velocity Error:  0.18E-01 on Mesh   1 at (   7  15   4)
       Maximum Pressure Error:  0.10E+04 on Mesh   1 at (   4  17  30)
       ---------------------------------------------------------------
       Max CFL number:  0.86E+00 at (   4,  17,  29)
       Max divergence:  0.19E+02 at (  13,  13,   5)
       Min divergence: -0.50E+01 at (   7,  13,   8)
       Max VN number:   0.27E+00 at (   4,  17,  28)
       Total Heat Release Rate:            107.644 kW
       Radiation Loss to Boundaries:       -37.192 kW
 
       Time Step    3900   February 19, 2021  12:52:00
       Step Size:    0.562E-02 s, Total Time:      25.47 s
       Pressure Iterations:      2
       Maximum Velocity Error:  0.61E-02 on Mesh   1 at (  12  15   4)
       Maximum Pressure Error:  0.24E+04 on Mesh   1 at (   6  13  18)
       ---------------------------------------------------------------
       Max CFL number:  0.88E+00 at (   6,  13,  18)
       Max divergence:  0.18E+02 at (   8,   9,   5)
       Min divergence: -0.55E+01 at (  10,  10,   7)
       Max VN number:   0.24E+00 at (   6,  13,  17)
       Total Heat Release Rate:             83.999 kW
       Radiation Loss to Boundaries:       -27.971 kW
 
       Time Step    4000   February 19, 2021  12:53:23
       Step Size:    0.629E-02 s, Total Time:      26.02 s
       Pressure Iterations:      2
       Maximum Velocity Error:  0.10E-01 on Mesh   1 at (  10  15   4)
       Maximum Pressure Error:  0.16E+04 on Mesh   1 at (  14  11   5)
       ---------------------------------------------------------------
       Max CFL number:  0.88E+00 at (   2,  16,  31)
       Max divergence:  0.15E+02 at (   5,  16,   5)
       Min divergence: -0.48E+01 at (   3,  14,  16)
       Max VN number:   0.29E+00 at (   1,  17,  27)
       Total Heat Release Rate:            111.868 kW
       Radiation Loss to Boundaries:       -38.437 kW
 
       Time Step    4100   February 19, 2021  12:54:45
       Step Size:    0.692E-02 s, Total Time:      26.66 s
       Pressure Iterations:      2
       Maximum Velocity Error:  0.12E-01 on Mesh   1 at (  10  12   4)
       Maximum Pressure Error:  0.47E+04 on Mesh   1 at (   5   9   5)
       ---------------------------------------------------------------
       Max CFL number:  0.96E+00 at (   6,  14,  18)
       Max divergence:  0.17E+02 at (   7,  12,   6)
       Min divergence: -0.59E+01 at (  11,  15,   7)
       Max VN number:   0.32E+00 at (   4,  21,  48)
       Total Heat Release Rate:             95.205 kW
       Radiation Loss to Boundaries:       -31.339 kW
 
       Time Step    4200   February 19, 2021  12:56:08
       Step Size:    0.629E-02 s, Total Time:      27.29 s
       Pressure Iterations:      2
       Maximum Velocity Error:  0.24E-01 on Mesh   1 at (  12   9   4)
       Maximum Pressure Error:  0.69E+04 on Mesh   1 at (   5  16   5)
       ---------------------------------------------------------------
       Max CFL number:  0.91E+00 at (   6,  14,  28)
       Max divergence:  0.22E+02 at (   7,  14,  11)
       Min divergence: -0.51E+01 at (  11,  11,   7)
       Max VN number:   0.23E+00 at (   6,  14,  26)
       Total Heat Release Rate:            104.216 kW
       Radiation Loss to Boundaries:       -35.302 kW
 
       Time Step    4300   February 19, 2021  12:57:31
       Step Size:    0.655E-02 s, Total Time:      27.93 s
       Pressure Iterations:      2
       Maximum Velocity Error:  0.47E-02 on Mesh   1 at (  10  13   4)
       Maximum Pressure Error:  0.14E+04 on Mesh   1 at (   4  14  24)
       ---------------------------------------------------------------
       Max CFL number:  0.99E+00 at (   5,  15,  21)
       Max divergence:  0.18E+02 at (  12,  15,   5)
       Min divergence: -0.53E+01 at (   6,  15,  21)
       Max VN number:   0.26E+00 at (   6,  24,  38)
       Total Heat Release Rate:             99.703 kW
       Radiation Loss to Boundaries:       -32.333 kW
 
       Time Step    4400   February 19, 2021  12:58:53
       Step Size:    0.584E-02 s, Total Time:      28.53 s
       Pressure Iterations:      2
       Maximum Velocity Error:  0.56E-02 on Mesh   1 at (   7  12   4)
       Maximum Pressure Error:  0.22E+04 on Mesh   1 at (  12   8   5)
       ---------------------------------------------------------------
       Max CFL number:  0.80E+00 at (   6,  14,  36)
       Max divergence:  0.16E+02 at (   5,  15,   5)
       Min divergence: -0.49E+01 at (   9,  14,   7)
       Max VN number:   0.25E+00 at (   4,  21,  48)
       Total Heat Release Rate:             96.155 kW
       Radiation Loss to Boundaries:       -33.334 kW
 
       Time Step    4500   February 19, 2021  13:00:15
       Step Size:    0.660E-02 s, Total Time:      29.18 s
       Pressure Iterations:      2
       Maximum Velocity Error:  0.76E-02 on Mesh   1 at (   9  15   4)
       Maximum Pressure Error:  0.12E+04 on Mesh   1 at (   5   8   5)
       ---------------------------------------------------------------
       Max CFL number:  0.92E+00 at (   6,  14,  17)
       Max divergence:  0.13E+02 at (  12,  17,   5)
       Min divergence: -0.63E+01 at (   6,  14,  18)
       Max VN number:   0.27E+00 at (   1,  18,  44)
       Total Heat Release Rate:             93.324 kW
       Radiation Loss to Boundaries:       -31.664 kW
 
       Time Step    4600   February 19, 2021  13:01:38
       Step Size:    0.629E-02 s, Total Time:      29.82 s
       Pressure Iterations:      2
       Maximum Velocity Error:  0.14E-01 on Mesh   1 at (   8  10   4)
       Maximum Pressure Error:  0.36E+04 on Mesh   1 at (   5   9   5)
       ---------------------------------------------------------------
       Max CFL number:  0.92E+00 at (   6,  14,  24)
       Max divergence:  0.13E+02 at (  13,  16,   5)
       Min divergence: -0.63E+01 at (  10,  14,   7)
       Max VN number:   0.36E+00 at (   5,  11,  48)
       Total Heat Release Rate:             91.952 kW
       Radiation Loss to Boundaries:       -30.851 kW
 
       Time Step    4700   February 19, 2021  13:03:00
       Step Size:    0.614E-02 s, Total Time:      30.46 s
       Pressure Iterations:      2
       Maximum Velocity Error:  0.10E-01 on Mesh   1 at (   9  14   4)
       Maximum Pressure Error:  0.33E+04 on Mesh   1 at (  13   9   5)
       ---------------------------------------------------------------
       Max CFL number:  0.88E+00 at (   3,  14,  27)
       Max divergence:  0.16E+02 at (  10,   8,   5)
       Min divergence: -0.62E+01 at (   5,  15,  33)
       Max VN number:   0.27E+00 at (   7,  14,  15)
       Total Heat Release Rate:            102.756 kW
       Radiation Loss to Boundaries:       -34.533 kW
 
       Time Step    4800   February 19, 2021  13:04:23
       Step Size:    0.676E-02 s, Total Time:      31.10 s
       Pressure Iterations:      5
       Maximum Velocity Error:  0.13E-01 on Mesh   1 at (  10   8   4)
       Maximum Pressure Error:  0.69E+04 on Mesh   1 at (   9  15  18)
       ---------------------------------------------------------------
       Max CFL number:  0.87E+00 at (   6,  14,  14)
       Max divergence:  0.17E+02 at (   6,  16,   5)
       Min divergence: -0.51E+01 at (  10,  14,  15)
       Max VN number:   0.26E+00 at (  11,  24,  40)
       Total Heat Release Rate:            102.008 kW
       Radiation Loss to Boundaries:       -35.805 kW
 
       Time Step    4900   February 19, 2021  13:05:47
       Step Size:    0.530E-02 s, Total Time:      31.71 s
       Pressure Iterations:      1
       Maximum Velocity Error:  0.20E-01 on Mesh   1 at (   8  10   4)
       Maximum Pressure Error:  0.16E+04 on Mesh   1 at (  11  17   5)
       ---------------------------------------------------------------
       Max CFL number:  0.80E+00 at (   6,  15,  36)
       Max divergence:  0.15E+02 at (   6,  13,   5)
       Min divergence: -0.44E+01 at (   7,  13,  26)
       Max VN number:   0.20E+00 at (  16,   1,  48)
       Total Heat Release Rate:            101.117 kW
       Radiation Loss to Boundaries:       -33.967 kW
 
       Time Step    5000   February 19, 2021  13:07:09
       Step Size:    0.554E-02 s, Total Time:      32.34 s
       Pressure Iterations:      1
       Maximum Velocity Error:  0.24E-01 on Mesh   1 at (   7  11   4)
       Maximum Pressure Error:  0.17E+04 on Mesh   1 at (   7  13  20)
       ---------------------------------------------------------------
       Max CFL number:  0.89E+00 at (   7,  13,  20)
       Max divergence:  0.16E+02 at (   9,  11,   7)
       Min divergence: -0.42E+01 at (   8,  14,  21)
       Max VN number:   0.27E+00 at (  10,   9,  48)
       Total Heat Release Rate:            114.701 kW
       Radiation Loss to Boundaries:       -37.651 kW
 
       Time Step    5100   February 19, 2021  13:08:31
       Step Size:    0.614E-02 s, Total Time:      32.96 s
       Pressure Iterations:      2
       Maximum Velocity Error:  0.79E-02 on Mesh   1 at (   9  11   4)
       Maximum Pressure Error:  0.29E+04 on Mesh   1 at (   6   9   5)
       ---------------------------------------------------------------
       Max CFL number:  0.88E+00 at (   3,  17,  39)
       Max divergence:  0.15E+02 at (  10,   8,   5)
       Min divergence: -0.45E+01 at (  12,  10,   7)
       Max VN number:   0.30E+00 at (   5,  13,  48)
       Total Heat Release Rate:             97.418 kW
       Radiation Loss to Boundaries:       -32.870 kW
 
       Time Step    5200   February 19, 2021  13:09:54
       Step Size:    0.604E-02 s, Total Time:      33.60 s
       Pressure Iterations:      2
       Maximum Velocity Error:  0.69E-02 on Mesh   1 at (   6  14   4)
       Maximum Pressure Error:  0.28E+04 on Mesh   1 at (   5  12   5)
       ---------------------------------------------------------------
       Max CFL number:  0.99E+00 at (   7,  15,  21)
       Max divergence:  0.20E+02 at (  10,   8,   5)
       Min divergence: -0.46E+01 at (   8,  16,  25)
       Max VN number:   0.33E+00 at (   8,  16,  24)
       Total Heat Release Rate:            101.716 kW
       Radiation Loss to Boundaries:       -33.868 kW
 
       Time Step    5300   February 19, 2021  13:11:15
       Step Size:    0.671E-02 s, Total Time:      34.20 s
       Pressure Iterations:      2
       Maximum Velocity Error:  0.10E-01 on Mesh   1 at (   5  16   4)
       Maximum Pressure Error:  0.80E+03 on Mesh   1 at (   5  16   5)
       ---------------------------------------------------------------
       Max CFL number:  0.99E+00 at (   5,  14,  31)
       Max divergence:  0.18E+02 at (   5,  15,   5)
       Min divergence: -0.71E+01 at (   6,  15,   5)
       Max VN number:   0.36E+00 at (   9,  13,  16)
       Total Heat Release Rate:             90.543 kW
       Radiation Loss to Boundaries:       -30.083 kW
 
       Time Step    5400   February 19, 2021  13:12:37
       Step Size:    0.760E-02 s, Total Time:      34.87 s
       Pressure Iterations:      2
       Maximum Velocity Error:  0.87E-02 on Mesh   1 at (   9   9   4)
       Maximum Pressure Error:  0.12E+04 on Mesh   1 at (   7  13  14)
       ---------------------------------------------------------------
       Max CFL number:  0.90E+00 at (   5,  16,  20)
       Max divergence:  0.13E+02 at (  12,   8,   5)
       Min divergence: -0.61E+01 at (   9,  11,   7)
       Max VN number:   0.30E+00 at (   6,  18,  48)
       Total Heat Release Rate:            106.070 kW
       Radiation Loss to Boundaries:       -37.082 kW
 
       Time Step    5500   February 19, 2021  13:14:11
       Step Size:    0.590E-02 s, Total Time:      35.47 s
       Pressure Iterations:      2
       Maximum Velocity Error:  0.73E-02 on Mesh   1 at (   5   8   4)
       Maximum Pressure Error:  0.20E+04 on Mesh   1 at (   5   8   5)
       ---------------------------------------------------------------
       Max CFL number:  0.84E+00 at (   6,  13,  27)
       Max divergence:  0.17E+02 at (   5,  13,   5)
       Min divergence: -0.48E+01 at (   6,  15,  31)
       Max VN number:   0.26E+00 at (   1,  19,  46)
       Total Heat Release Rate:            108.730 kW
       Radiation Loss to Boundaries:       -36.515 kW
 
       Time Step    5600   February 19, 2021  13:15:35
       Step Size:    0.631E-02 s, Total Time:      36.13 s
       Pressure Iterations:      2
       Maximum Velocity Error:  0.93E-02 on Mesh   1 at (  11  10   4)
       Maximum Pressure Error:  0.13E+04 on Mesh   1 at (   5   8   5)
       ---------------------------------------------------------------
       Max CFL number:  0.90E+00 at (   4,  14,  31)
       Max divergence:  0.20E+02 at (  11,  14,   5)
       Min divergence: -0.61E+01 at (   6,  17,  31)
       Max VN number:   0.28E+00 at (   5,  17,  29)
       Total Heat Release Rate:             89.869 kW
       Radiation Loss to Boundaries:       -30.097 kW
 
       Time Step    5700   February 19, 2021  13:16:58
       Step Size:    0.614E-02 s, Total Time:      36.77 s
       Pressure Iterations:      2
       Maximum Velocity Error:  0.12E-01 on Mesh   1 at (   7  15   4)
       Maximum Pressure Error:  0.32E+04 on Mesh   1 at (  13  17   5)
       ---------------------------------------------------------------
       Max CFL number:  0.87E+00 at (   6,  13,  19)
       Max divergence:  0.21E+02 at (   8,  12,   7)
       Min divergence: -0.45E+01 at (   7,  14,  14)
       Max VN number:   0.34E+00 at (   1,  12,  45)
       Total Heat Release Rate:            105.138 kW
       Radiation Loss to Boundaries:       -35.744 kW
 
       Time Step    5800   February 19, 2021  13:18:23
       Step Size:    0.602E-02 s, Total Time:      37.37 s
       Pressure Iterations:      2
       Maximum Velocity Error:  0.95E-02 on Mesh   1 at (   5  15   4)
       Maximum Pressure Error:  0.38E+04 on Mesh   1 at (  12   8   5)
       ---------------------------------------------------------------
       Max CFL number:  0.83E+00 at (   5,  16,  27)
       Max divergence:  0.13E+02 at (  12,   9,   5)
       Min divergence: -0.40E+01 at (   9,   9,  14)
       Max VN number:   0.28E+00 at (   5,  13,  48)
       Total Heat Release Rate:             91.723 kW
       Radiation Loss to Boundaries:       -30.817 kW
 
       Time Step    5900   February 19, 2021  13:19:46
       Step Size:    0.706E-02 s, Total Time:      37.97 s
       Pressure Iterations:      2
       Maximum Velocity Error:  0.55E-02 on Mesh   1 at (   8  16   4)
       Maximum Pressure Error:  0.59E+04 on Mesh   1 at (  14  15   5)
       ---------------------------------------------------------------
       Max CFL number:  0.87E+00 at (   6,  13,  17)
       Max divergence:  0.18E+02 at (   7,  15,  15)
       Min divergence: -0.54E+01 at (   6,  13,  18)
       Max VN number:   0.37E+00 at (   3,  15,  48)
       Total Heat Release Rate:            128.444 kW
       Radiation Loss to Boundaries:       -44.102 kW
 
       Time Step    6000   February 19, 2021  13:21:12
       Step Size:    0.601E-02 s, Total Time:      38.58 s
       Pressure Iterations:      2
       Maximum Velocity Error:  0.15E-01 on Mesh   1 at (   9  11   4)
       Maximum Pressure Error:  0.93E+03 on Mesh   1 at (   3  12  29)
       ---------------------------------------------------------------
       Max CFL number:  0.89E+00 at (   3,  12,  28)
       Max divergence:  0.16E+02 at (   9,  16,   5)
       Min divergence: -0.60E+01 at (   9,  13,   8)
       Max VN number:   0.29E+00 at (   1,  15,  43)
       Total Heat Release Rate:             94.399 kW
       Radiation Loss to Boundaries:       -32.053 kW
 
       Time Step    6100   February 19, 2021  13:22:35
       Step Size:    0.624E-02 s, Total Time:      39.25 s
       Pressure Iterations:      2
       Maximum Velocity Error:  0.14E-01 on Mesh   1 at (  11  11   4)
       Maximum Pressure Error:  0.14E+04 on Mesh   1 at (   5   8   5)
       ---------------------------------------------------------------
       Max CFL number:  0.91E+00 at (   7,  14,  19)
       Max divergence:  0.19E+02 at (   6,  11,   5)
       Min divergence: -0.51E+01 at (  10,  15,   8)
       Max VN number:   0.24E+00 at (   1,  16,  46)
       Total Heat Release Rate:             87.143 kW
       Radiation Loss to Boundaries:       -29.915 kW
 
       Time Step    6200   February 19, 2021  13:23:58
       Step Size:    0.643E-02 s, Total Time:      39.87 s
       Pressure Iterations:      1
       Maximum Velocity Error:  0.23E-01 on Mesh   1 at (  13  17   4)
       Maximum Pressure Error:  0.23E+04 on Mesh   1 at (  13  17   5)
       ---------------------------------------------------------------
       Max CFL number:  0.87E+00 at (   6,  13,  24)
       Max divergence:  0.17E+02 at (   5,  16,   5)
       Min divergence: -0.56E+01 at (   6,  15,  11)
       Max VN number:   0.28E+00 at (   8,  12,  48)
       Total Heat Release Rate:             94.519 kW
       Radiation Loss to Boundaries:       -32.803 kW
 
       Time Step    6300   February 19, 2021  13:25:22
       Step Size:    0.612E-02 s, Total Time:      40.54 s
       Pressure Iterations:      2
       Maximum Velocity Error:  0.78E-02 on Mesh   1 at (   8  10   4)
       Maximum Pressure Error:  0.38E+04 on Mesh   1 at (  13  17   5)
       ---------------------------------------------------------------
       Max CFL number:  0.91E+00 at (   1,  15,  32)
       Max divergence:  0.15E+02 at (  12,  10,   5)
       Min divergence: -0.78E+01 at (   7,  14,  21)
       Max VN number:   0.31E+00 at (   1,  15,  34)
       Total Heat Release Rate:            117.555 kW
       Radiation Loss to Boundaries:       -39.478 kW
 
       Time Step    6400   February 19, 2021  13:26:44
       Step Size:    0.678E-02 s, Total Time:      41.15 s
       Pressure Iterations:      2
       Maximum Velocity Error:  0.17E-01 on Mesh   1 at (   7  10   4)
       Maximum Pressure Error:  0.88E+03 on Mesh   1 at (   8  17  13)
       ---------------------------------------------------------------
       Max CFL number:  0.93E+00 at (   5,  15,  35)
       Max divergence:  0.24E+02 at (   7,  15,   7)
       Min divergence: -0.41E+01 at (   8,  12,  10)
       Max VN number:   0.29E+00 at (  11,  24,  48)
       Total Heat Release Rate:             96.588 kW
       Radiation Loss to Boundaries:       -32.496 kW
 
       Time Step    6500   February 19, 2021  13:28:08
       Step Size:    0.562E-02 s, Total Time:      41.80 s
       Pressure Iterations:      1
       Maximum Velocity Error:  0.19E-01 on Mesh   1 at (   8  16   4)
       Maximum Pressure Error:  0.25E+04 on Mesh   1 at (   4  15  24)
       ---------------------------------------------------------------
       Max CFL number:  0.90E+00 at (   4,  15,  24)
       Max divergence:  0.16E+02 at (   8,  16,   5)
       Min divergence: -0.54E+01 at (   5,  13,  18)
       Max VN number:   0.21E+00 at (   5,  17,  28)
       Total Heat Release Rate:            111.446 kW
       Radiation Loss to Boundaries:       -37.531 kW
 
       Time Step    6600   February 19, 2021  13:29:30
       Step Size:    0.605E-02 s, Total Time:      42.40 s
       Pressure Iterations:      2
       Maximum Velocity Error:  0.93E-02 on Mesh   1 at (   5  15   4)
       Maximum Pressure Error:  0.21E+04 on Mesh   1 at (  14  16   5)
       ---------------------------------------------------------------
       Max CFL number:  0.88E+00 at (   5,  15,  36)
       Max divergence:  0.13E+02 at (  10,  16,   5)
       Min divergence: -0.55E+01 at (   9,   9,  11)
       Max VN number:   0.28E+00 at (   6,  10,  48)
       Total Heat Release Rate:             90.141 kW
       Radiation Loss to Boundaries:       -30.139 kW
 
       Time Step    6700   February 19, 2021  13:30:53
       Step Size:    0.632E-02 s, Total Time:      43.06 s
       Pressure Iterations:      2
       Maximum Velocity Error:  0.61E-02 on Mesh   1 at (   5  15   4)
       Maximum Pressure Error:  0.18E+04 on Mesh   1 at (   4  15   5)
       ---------------------------------------------------------------
       Max CFL number:  0.91E+00 at (   8,  13,  21)
       Max divergence:  0.16E+02 at (   8,  15,   7)
       Min divergence: -0.11E+02 at (   7,  14,  23)
       Max VN number:   0.30E+00 at (   7,  14,  22)
       Total Heat Release Rate:             96.107 kW
       Radiation Loss to Boundaries:       -31.671 kW
 
       Time Step    6800   February 19, 2021  13:32:17
       Step Size:    0.610E-02 s, Total Time:      43.73 s
       Pressure Iterations:      2
       Maximum Velocity Error:  0.13E-01 on Mesh   1 at (   8  14   4)
       Maximum Pressure Error:  0.26E+04 on Mesh   1 at (  12   8   5)
       ---------------------------------------------------------------
       Max CFL number:  0.81E+00 at (   7,  12,  34)
       Max divergence:  0.15E+02 at (   5,   9,   5)
       Min divergence: -0.56E+01 at (   8,  12,  11)
       Max VN number:   0.30E+00 at (   1,  18,  39)
       Total Heat Release Rate:             84.585 kW
       Radiation Loss to Boundaries:       -28.928 kW
 
       Time Step    6900   February 19, 2021  13:33:40
       Step Size:    0.663E-02 s, Total Time:      44.43 s
       Pressure Iterations:      1
       Maximum Velocity Error:  0.13E-01 on Mesh   1 at (  11  12   4)
       Maximum Pressure Error:  0.78E+03 on Mesh   1 at (   5   9   5)
       ---------------------------------------------------------------
       Max CFL number:  0.82E+00 at (   5,  12,  28)
       Max divergence:  0.15E+02 at (  13,  10,   5)
       Min divergence: -0.64E+01 at (   6,  12,  30)
       Max VN number:   0.29E+00 at (   4,  14,  48)
       Total Heat Release Rate:             86.233 kW
       Radiation Loss to Boundaries:       -28.807 kW
 
       Time Step    7000   February 19, 2021  13:35:03
       Step Size:    0.559E-02 s, Total Time:      45.05 s
       Pressure Iterations:      2
       Maximum Velocity Error:  0.12E-01 on Mesh   1 at (   6  15   4)
       Maximum Pressure Error:  0.44E+04 on Mesh   1 at (  13   8   5)
       ---------------------------------------------------------------
       Max CFL number:  0.86E+00 at (   3,  15,  25)
       Max divergence:  0.15E+02 at (   8,  16,   5)
       Min divergence: -0.56E+01 at (  11,  10,   6)
       Max VN number:   0.24E+00 at (   5,  15,  37)
       Total Heat Release Rate:             98.010 kW
       Radiation Loss to Boundaries:       -33.754 kW
 
       Time Step    7100   February 19, 2021  13:36:24
       Step Size:    0.651E-02 s, Total Time:      45.64 s
       Pressure Iterations:      1
       Maximum Velocity Error:  0.23E-01 on Mesh   1 at (   9   9   4)
       Maximum Pressure Error:  0.11E+04 on Mesh   1 at (   1  18  37)
       ---------------------------------------------------------------
       Max CFL number:  0.83E+00 at (   1,  18,  40)
       Max divergence:  0.15E+02 at (   9,   8,   5)
       Min divergence: -0.46E+01 at (  11,  16,   6)
       Max VN number:   0.32E+00 at (   3,   1,  48)
       Total Heat Release Rate:             93.558 kW
       Radiation Loss to Boundaries:       -32.291 kW
 
       Time Step    7200   February 19, 2021  13:37:47
       Step Size:    0.527E-02 s, Total Time:      46.28 s
       Pressure Iterations:      1
       Maximum Velocity Error:  0.25E-01 on Mesh   1 at (   5  15   4)
       Maximum Pressure Error:  0.11E+04 on Mesh   1 at (   4  16  24)
       ---------------------------------------------------------------
       Max CFL number:  0.82E+00 at (   6,  16,  19)
       Max divergence:  0.18E+02 at (   7,  16,   9)
       Min divergence: -0.50E+01 at (   6,  16,  19)
       Max VN number:   0.27E+00 at (   3,  19,  48)
       Total Heat Release Rate:            109.075 kW
       Radiation Loss to Boundaries:       -36.362 kW
 
       Time Step    7300   February 19, 2021  13:39:11
       Step Size:    0.673E-02 s, Total Time:      46.94 s
       Pressure Iterations:      2
       Maximum Velocity Error:  0.71E-02 on Mesh   1 at (   8  12   4)
       Maximum Pressure Error:  0.29E+04 on Mesh   1 at (   8  13  13)
       ---------------------------------------------------------------
       Max CFL number:  0.96E+00 at (   8,  16,  15)
       Max divergence:  0.18E+02 at (   9,  13,   9)
       Min divergence: -0.50E+01 at (   6,  15,  17)
       Max VN number:   0.29E+00 at (   7,  24,  48)
       Total Heat Release Rate:            109.575 kW
       Radiation Loss to Boundaries:       -36.725 kW
 
       Time Step    7400   February 19, 2021  13:40:35
       Step Size:    0.601E-02 s, Total Time:      47.52 s
       Pressure Iterations:      2
       Maximum Velocity Error:  0.14E-01 on Mesh   1 at (   7  15   4)
       Maximum Pressure Error:  0.15E+04 on Mesh   1 at (  11  15  18)
       ---------------------------------------------------------------
       Max CFL number:  0.86E+00 at (   3,  15,  37)
       Max divergence:  0.15E+02 at (  13,  11,   5)
       Min divergence: -0.67E+01 at (   9,  14,  16)
       Max VN number:   0.30E+00 at (   8,  14,  20)
       Total Heat Release Rate:             91.432 kW
       Radiation Loss to Boundaries:       -29.889 kW
 
       Time Step    7500   February 19, 2021  13:41:59
       Step Size:    0.633E-02 s, Total Time:      48.18 s
       Pressure Iterations:      2
       Maximum Velocity Error:  0.79E-02 on Mesh   1 at (   8  15   4)
       Maximum Pressure Error:  0.25E+04 on Mesh   1 at (   5   8   5)
       ---------------------------------------------------------------
       Max CFL number:  0.86E+00 at (   5,  12,  21)
       Max divergence:  0.15E+02 at (   9,   9,   5)
       Min divergence: -0.52E+01 at (  10,  11,   8)
       Max VN number:   0.23E+00 at (   7,   8,  48)
       Total Heat Release Rate:             93.866 kW
       Radiation Loss to Boundaries:       -31.113 kW
 
       Time Step    7600   February 19, 2021  13:43:22
       Step Size:    0.731E-02 s, Total Time:      48.84 s
       Pressure Iterations:      2
       Maximum Velocity Error:  0.16E-01 on Mesh   1 at (  12  17   4)
       Maximum Pressure Error:  0.36E+04 on Mesh   1 at (   8  12  16)
       ---------------------------------------------------------------
       Max CFL number:  0.87E+00 at (   7,  14,  22)
       Max divergence:  0.24E+02 at (   6,  11,   5)
       Min divergence: -0.37E+01 at (   8,  13,  14)
       Max VN number:   0.29E+00 at (   8,  12,  15)
       Total Heat Release Rate:            106.114 kW
       Radiation Loss to Boundaries:       -35.581 kW
 
       Time Step    7700   February 19, 2021  13:44:47
       Step Size:    0.699E-02 s, Total Time:      49.50 s
       Pressure Iterations:      2
       Maximum Velocity Error:  0.14E-01 on Mesh   1 at (   9  13   4)
       Maximum Pressure Error:  0.79E+03 on Mesh   1 at (   4  14  18)
       ---------------------------------------------------------------
       Max CFL number:  0.84E+00 at (   5,  15,  27)
       Max divergence:  0.19E+02 at (   9,  10,   6)
       Min divergence: -0.58E+01 at (   9,  12,   8)
       Max VN number:   0.23E+00 at (  13,  24,  48)
       Total Heat Release Rate:            101.467 kW
       Radiation Loss to Boundaries:       -34.589 kW
 
       Time Step    7800   February 19, 2021  13:46:12
       Step Size:    0.808E-02 s, Total Time:      50.24 s
       Pressure Iterations:      2
       Maximum Velocity Error:  0.19E-01 on Mesh   1 at (   7  13   4)
       Maximum Pressure Error:  0.21E+04 on Mesh   1 at (  13   8   5)
       ---------------------------------------------------------------
       Max CFL number:  0.92E+00 at (   6,  18,  22)
       Max divergence:  0.15E+02 at (   7,  15,   8)
       Min divergence: -0.51E+01 at (   6,  10,   8)
       Max VN number:   0.33E+00 at (   8,   9,  48)
       Total Heat Release Rate:            101.079 kW
       Radiation Loss to Boundaries:       -34.430 kW
 
       Time Step    7900   February 19, 2021  13:47:38
       Step Size:    0.560E-02 s, Total Time:      50.91 s
       Pressure Iterations:      2
       Maximum Velocity Error:  0.12E-01 on Mesh   1 at (   8  15   4)
       Maximum Pressure Error:  0.22E+04 on Mesh   1 at (   8  11  10)
       ---------------------------------------------------------------
       Max CFL number:  0.86E+00 at (   8,  11,  19)
       Max divergence:  0.14E+02 at (   7,  17,   5)
       Min divergence: -0.50E+01 at (   8,  10,  21)
       Max VN number:   0.23E+00 at (   9,  16,  48)
       Total Heat Release Rate:             92.613 kW
       Radiation Loss to Boundaries:       -30.645 kW
 
       Time Step    8000   February 19, 2021  13:49:02
       Step Size:    0.669E-02 s, Total Time:      51.55 s
       Pressure Iterations:      1
       Maximum Velocity Error:  0.18E-01 on Mesh   1 at (  11   9   4)
       Maximum Pressure Error:  0.26E+04 on Mesh   1 at (   5   8   5)
       ---------------------------------------------------------------
       Max CFL number:  0.80E+00 at (   4,  17,  38)
       Max divergence:  0.17E+02 at (   7,  11,   6)
       Min divergence: -0.60E+01 at (  11,  10,   7)
       Max VN number:   0.28E+00 at (   5,  14,  48)
       Total Heat Release Rate:            114.859 kW
       Radiation Loss to Boundaries:       -39.349 kW
 
       Time Step    8100   February 19, 2021  13:50:28
       Step Size:    0.652E-02 s, Total Time:      52.24 s
       Pressure Iterations:      2
       Maximum Velocity Error:  0.12E-01 on Mesh   1 at (   7  14   4)
       Maximum Pressure Error:  0.22E+04 on Mesh   1 at (   8  15  10)
       ---------------------------------------------------------------
       Max CFL number:  0.93E+00 at (   5,   8,  35)
       Max divergence:  0.18E+02 at (   6,  14,   5)
       Min divergence: -0.47E+01 at (   7,  10,   7)
       Max VN number:   0.25E+00 at (   5,   8,  34)
       Total Heat Release Rate:             93.046 kW
       Radiation Loss to Boundaries:       -32.714 kW
 
       Time Step    8200   February 19, 2021  13:51:52
       Step Size:    0.678E-02 s, Total Time:      52.93 s
       Pressure Iterations:      2
       Maximum Velocity Error:  0.98E-02 on Mesh   1 at (  12  17   4)
       Maximum Pressure Error:  0.18E+04 on Mesh   1 at (   5   8   5)
       ---------------------------------------------------------------
       Max CFL number:  0.91E+00 at (   9,  14,  25)
       Max divergence:  0.16E+02 at (  12,  13,   5)
       Min divergence: -0.55E+01 at (  10,  10,   7)
       Max VN number:   0.32E+00 at (   6,  11,  20)
       Total Heat Release Rate:            104.717 kW
       Radiation Loss to Boundaries:       -35.100 kW
 
       Time Step    8300   February 19, 2021  13:53:17
       Step Size:    0.678E-02 s, Total Time:      53.64 s
       Pressure Iterations:      4
       Maximum Velocity Error:  0.22E-01 on Mesh   1 at (   9  17   4)
       Maximum Pressure Error:  0.56E+04 on Mesh   1 at (   5  17   5)
       ---------------------------------------------------------------
       Max CFL number:  0.89E+00 at (   5,  14,  20)
       Max divergence:  0.17E+02 at (   8,  14,   8)
       Min divergence: -0.35E+01 at (   7,  12,  17)
       Max VN number:   0.24E+00 at (  13,   1,  48)
       Total Heat Release Rate:             97.659 kW
       Radiation Loss to Boundaries:       -34.091 kW
 
       Time Step    8400   February 19, 2021  13:54:41
       Step Size:    0.635E-02 s, Total Time:      54.28 s
       Pressure Iterations:      2
       Maximum Velocity Error:  0.15E-01 on Mesh   1 at (   8  11   4)
       Maximum Pressure Error:  0.32E+04 on Mesh   1 at (  14   9   5)
       ---------------------------------------------------------------
       Max CFL number:  0.89E+00 at (   4,  16,  30)
       Max divergence:  0.18E+02 at (   7,  17,   5)
       Min divergence: -0.49E+01 at (   6,  11,  15)
       Max VN number:   0.26E+00 at (   6,  11,  48)
       Total Heat Release Rate:            115.114 kW
       Radiation Loss to Boundaries:       -39.232 kW
 
       Time Step    8500   February 19, 2021  13:56:06
       Step Size:    0.719E-02 s, Total Time:      54.96 s
       Pressure Iterations:      2
       Maximum Velocity Error:  0.16E-01 on Mesh   1 at (   6  15   4)
       Maximum Pressure Error:  0.74E+03 on Mesh   1 at (   5   8   5)
       ---------------------------------------------------------------
       Max CFL number:  0.92E+00 at (   3,  15,  30)
       Max divergence:  0.14E+02 at (   6,  13,   5)
       Min divergence: -0.56E+01 at (   4,  16,  24)
       Max VN number:   0.30E+00 at (  12,  16,  48)
       Total Heat Release Rate:             84.484 kW
       Radiation Loss to Boundaries:       -28.437 kW
 
       Time Step    8600   February 19, 2021  13:57:30
       Step Size:    0.683E-02 s, Total Time:      55.61 s
       Pressure Iterations:      1
       Maximum Velocity Error:  0.20E-01 on Mesh   1 at (  11  13   4)
       Maximum Pressure Error:  0.77E+03 on Mesh   1 at (   7  16  19)
       ---------------------------------------------------------------
       Max CFL number:  0.88E+00 at (   4,  14,  31)
       Max divergence:  0.22E+02 at (   6,  10,   5)
       Min divergence: -0.50E+01 at (   9,  10,   8)
       Max VN number:   0.29E+00 at (   5,  20,  48)
       Total Heat Release Rate:             80.851 kW
       Radiation Loss to Boundaries:       -26.207 kW
 
       Time Step    8700   February 19, 2021  13:58:53
       Step Size:    0.740E-02 s, Total Time:      56.27 s
       Pressure Iterations:      3
       Maximum Velocity Error:  0.11E-01 on Mesh   1 at (   6  15   4)
       Maximum Pressure Error:  0.65E+04 on Mesh   1 at (   6  13   5)
       ---------------------------------------------------------------
       Max CFL number:  0.90E+00 at (   4,  14,  35)
       Max divergence:  0.16E+02 at (   7,  16,  11)
       Min divergence: -0.45E+01 at (   9,  15,  11)
       Max VN number:   0.43E+00 at (   7,  13,  48)
       Total Heat Release Rate:            139.618 kW
       Radiation Loss to Boundaries:       -50.624 kW
 
       Time Step    8800   February 19, 2021  14:00:19
       Step Size:    0.590E-02 s, Total Time:      56.95 s
       Pressure Iterations:      2
       Maximum Velocity Error:  0.90E-02 on Mesh   1 at (  12  10   4)
       Maximum Pressure Error:  0.21E+04 on Mesh   1 at (  11   8   5)
       ---------------------------------------------------------------
       Max CFL number:  0.93E+00 at (   4,  16,  37)
       Max divergence:  0.14E+02 at (  13,  16,   5)
       Min divergence: -0.53E+01 at (  10,  14,  10)
       Max VN number:   0.22E+00 at (   5,  20,  48)
       Total Heat Release Rate:             85.565 kW
       Radiation Loss to Boundaries:       -28.851 kW
 
       Time Step    8900   February 19, 2021  14:01:43
       Step Size:    0.744E-02 s, Total Time:      57.58 s
       Pressure Iterations:      2
       Maximum Velocity Error:  0.80E-02 on Mesh   1 at (   7  11   4)
       Maximum Pressure Error:  0.82E+03 on Mesh   1 at (  10  11  15)
       ---------------------------------------------------------------
       Max CFL number:  0.87E+00 at (   5,  12,  30)
       Max divergence:  0.14E+02 at (   8,  11,  11)
       Min divergence: -0.41E+01 at (   7,  14,   9)
       Max VN number:   0.36E+00 at (   6,  12,  48)
       Total Heat Release Rate:             98.229 kW
       Radiation Loss to Boundaries:       -33.252 kW
 
       Time Step    9000   February 19, 2021  14:03:07
       Step Size:    0.624E-02 s, Total Time:      58.22 s
       Pressure Iterations:      2
       Maximum Velocity Error:  0.18E-01 on Mesh   1 at (   8  10   4)
       Maximum Pressure Error:  0.33E+04 on Mesh   1 at (   9   8   5)
       ---------------------------------------------------------------
       Max CFL number:  0.96E+00 at (   7,  10,  18)
       Max divergence:  0.20E+02 at (   6,  14,   6)
       Min divergence: -0.52E+01 at (   8,  15,   7)
       Max VN number:   0.26E+00 at (   8,  13,  14)
       Total Heat Release Rate:            105.335 kW
       Radiation Loss to Boundaries:       -34.537 kW
 
       Time Step    9100   February 19, 2021  14:04:32
       Step Size:    0.679E-02 s, Total Time:      58.86 s
       Pressure Iterations:      2
       Maximum Velocity Error:  0.16E-01 on Mesh   1 at (   6  14   4)
       Maximum Pressure Error:  0.28E+04 on Mesh   1 at (   7   9   5)
       ---------------------------------------------------------------
       Max CFL number:  0.93E+00 at (   5,  13,  14)
       Max divergence:  0.17E+02 at (  11,  10,   5)
       Min divergence: -0.47E+01 at (   8,  11,   8)
       Max VN number:   0.36E+00 at (   6,  13,  48)
       Total Heat Release Rate:             90.227 kW
       Radiation Loss to Boundaries:       -31.191 kW
 
       Time Step    9200   February 19, 2021  14:05:58
       Step Size:    0.630E-02 s, Total Time:      59.48 s
       Pressure Iterations:      2
       Maximum Velocity Error:  0.15E-01 on Mesh   1 at (   5  15   4)
       Maximum Pressure Error:  0.37E+04 on Mesh   1 at (  13   8   7)
       ---------------------------------------------------------------
       Max CFL number:  0.88E+00 at (   4,  14,  33)
       Max divergence:  0.14E+02 at (   6,   9,   5)
       Min divergence: -0.44E+01 at (   8,  13,  19)
       Max VN number:   0.30E+00 at (   5,  14,  48)
       Total Heat Release Rate:            119.479 kW
       Radiation Loss to Boundaries:       -41.703 kW
 
       Time Step    9283   February 19, 2021  14:07:13
       Step Size:    0.191E-02 s, Total Time:      60.00 s
       Pressure Iterations:      6
       Maximum Velocity Error:  0.20E-01 on Mesh   1 at (   5  14   4)
       Maximum Pressure Error:  0.77E+04 on Mesh   1 at (   5  13   5)
       ---------------------------------------------------------------
       Max CFL number:  0.26E+00 at (   8,  13,  14)
       Max divergence:  0.19E+02 at (  13,  11,   5)
       Min divergence: -0.49E+01 at (   8,  13,  14)
       Max VN number:   0.77E-01 at (   1,  12,  41)
       Total Heat Release Rate:            100.586 kW
       Radiation Loss to Boundaries:       -33.089 kW
 


 DEVICE Activation Times

   1  HD                                                              36.9 s


 Time Stepping Wall Clock Time (s):     7946.667
 Total Elapsed Wall Clock Time (s):     7955.160

STOP: FDS completed successfully (CHID: meshres)
