
 Fire Dynamics Simulator

 Current Date     : February 19, 2021  11:45:35
 Revision         : FDS6.7.5-0-g71f025606-release
 Revision Date    : Thu Aug 20 16:19:01 2020 -0400
 Compiler         : Intel ifort 19.1.1.216
 Compilation Date : Fri 08/21/2020  04:51 PM

 MPI Enabled;    Number of MPI Processes:       1
 OpenMP Enabled; Number of OpenMP Threads:      1

 MPI version: 3.1
 MPI library version: Intel(R) MPI Library 2019 Update 7 for Windows* OS


 Job TITLE        : 
 Job ID string    : meshres


 Grid Dimensions, Mesh     1

   Cells in the X Direction            36
   Cells in the Y Direction             6
   Cells in the Z Direction            12
   Number of Grid Cells              2592


 Physical Dimensions, Mesh     1

   Length (m)                       7.200
   Width  (m)                       1.200
   Height (m)                       2.400
   Initial Time Step (s)            0.204

Total Number of Grid Cells          2592


 Miscellaneous Parameters

   Simulation Start Time (s)          0.0
   Simulation End Time (s)           60.0
   LES Calculation
   Eddy Viscosity:           Deardorff Model (C_DEARDORFF = 0.10)
   Near-wall Eddy Viscosity: Smagorinsky with Van Driest damping (C_SMAGORINSKY = 0.20)
   Turbulent Prandtl Number:         0.50
   Turbulent Schmidt Number:         0.50
   Ambient Temperature (C):         20.00


 Mass Fraction Transformation Matrix to Convert Species Mixtures (Columns) to Primitive Species (Rows)

                         AIR       REAC_FUE  PRODUCTS
   REAC_FUEL             0.000000  1.000000  0.000000
   NITROGEN              0.762470  0.000000  0.720736
   OXYGEN                0.230997  0.000000  0.000000
   CARBON DIOXIDE        0.000591  0.000000  0.150715
   CARBON MONOXIDE       0.000000  0.000000  0.000000
   WATER VAPOR           0.005941  0.000000  0.128549
   SOOT                  0.000000  0.000000  0.000000
   HYDROGEN              0.000000  0.000000  0.000000


 Primitive Species Information

   REAC_FUEL
   Gas Species
   Molecular Weight (g/mol)            16.04246
   Ambient Density (kg/m^3)            0.667
   Enthalpy of Formation (J/kg)       -2.42E+06

   NITROGEN
   Gas Species
   Molecular Weight (g/mol)            28.01340
   Ambient Density (kg/m^3)            1.165
   Enthalpy of Formation (J/kg)        0.00E+00

   OXYGEN
   Gas Species
   Molecular Weight (g/mol)            31.99880
   Ambient Density (kg/m^3)            1.330
   Enthalpy of Formation (J/kg)        0.00E+00

   CARBON DIOXIDE
   Gas Species
   Molecular Weight (g/mol)            44.00950
   Ambient Density (kg/m^3)            1.830
   Enthalpy of Formation (J/kg)       -8.94E+06

   CARBON MONOXIDE
   Gas Species
   Molecular Weight (g/mol)            28.01010
   Ambient Density (kg/m^3)            1.164
   Enthalpy of Formation (J/kg)       -3.95E+06

   WATER VAPOR
   Gas Species
   Molecular Weight (g/mol)            18.01528
   Ambient Density (kg/m^3)            0.749
   Enthalpy of Formation (J/kg)       -1.34E+07

   SOOT
   Gas Species
   Molecular Weight (g/mol)            10.91042
   Ambient Density (kg/m^3)            0.454
   Enthalpy of Formation (J/kg)        0.00E+00

   HYDROGEN
   Gas Species
   Molecular Weight (g/mol)             2.01588
   Ambient Density (kg/m^3)            0.084
   Enthalpy of Formation (J/kg)        0.00E+00


 Tracked (Lumped) Species Information

   AIR
   Molecular Weight (g/mol)            28.75199
   Ambient Density (kg/m^3)            1.195
   Initial Mass Fraction               1.000
   Enthalpy of Formation (J/kg)     -8.50E+04

   Sub Species                    Mass Fraction     Mole Fraction
   NITROGEN                       7.624701E-01      7.825730E-01
   OXYGEN                         2.309974E-01      2.075589E-01
   CARBON DIOXIDE                 5.914651E-04      3.864120E-04
   WATER VAPOR                    5.940984E-03      9.481679E-03
 
     Viscosity (kg/m/s) Ambient,  293 K:  1.80E-05
                                  500 K:  2.61E-05
                                 1000 K:  4.13E-05
                                 1500 K:  5.37E-05
   Therm. Cond. (W/m/K) Ambient,  293 K:  2.56E-02
                                  500 K:  3.81E-02
                                 1000 K:  6.69E-02
                                 1500 K:  9.25E-02
        Enthalpy (J/kg) Ambient,  293 K: -9.01E+04
                                  500 K:  1.22E+05
                                 1000 K:  6.72E+05
                                 1500 K:  1.27E+06
    Spec. Heat (J/kg/K) Ambient,  293 K:  1.02E+03
                                  500 K:  1.04E+03
                                 1000 K:  1.16E+03
                                 1500 K:  1.23E+03
   Diff. Coeff. (m^2/s) Ambient,  293 K:  1.99E-05
                                  500 K:  4.96E-05
                                 1000 K:  1.58E-04
                                 1500 K:  3.09E-04

   REAC_FUEL
   Molecular Weight (g/mol)            16.04246
   Ambient Density (kg/m^3)            0.667
   Initial Mass Fraction               0.000
   Enthalpy of Formation (J/kg)     -2.42E+06

   Sub Species                    Mass Fraction     Mole Fraction
   REAC_FUEL                      1.000000E+00      1.000000E+00
 
     Viscosity (kg/m/s) Ambient,  293 K:  1.32E-05
                                  500 K:  1.90E-05
                                 1000 K:  2.99E-05
                                 1500 K:  3.89E-05
   Therm. Cond. (W/m/K) Ambient,  293 K:  3.36E-02
                                  500 K:  4.86E-02
                                 1000 K:  7.63E-02
                                 1500 K:  9.93E-02
        Enthalpy (J/kg) Ambient,  293 K: -2.43E+06
                                  500 K: -2.05E+06
                                 1000 K: -1.15E+06
                                 1500 K: -2.38E+05
    Spec. Heat (J/kg/K) Ambient,  293 K:  1.81E+03
                                  500 K:  1.81E+03
                                 1000 K:  1.81E+03
                                 1500 K:  1.81E+03
   Diff. Coeff. (m^2/s) Ambient,  293 K:  2.33E-05
                                  500 K:  5.78E-05
                                 1000 K:  1.84E-04
                                 1500 K:  3.60E-04

   PRODUCTS
   Molecular Weight (g/mol)            27.55701
   Ambient Density (kg/m^3)            1.146
   Initial Mass Fraction               0.000
   Enthalpy of Formation (J/kg)     -3.07E+06

   Sub Species                    Mass Fraction     Mole Fraction
   NITROGEN                       7.207360E-01      7.089940E-01
   CARBON DIOXIDE                 1.507153E-01      9.437199E-02
   CARBON MONOXIDE                0.000000E+00      0.000000E+00
   WATER VAPOR                    1.285486E-01      1.966340E-01
   SOOT                           0.000000E+00      0.000000E+00
 
     Viscosity (kg/m/s) Ambient,  293 K:  1.60E-05
                                  500 K:  2.37E-05
                                 1000 K:  3.89E-05
                                 1500 K:  5.15E-05
   Therm. Cond. (W/m/K) Ambient,  293 K:  2.35E-02
                                  500 K:  3.62E-02
                                 1000 K:  6.76E-02
                                 1500 K:  9.76E-02
        Enthalpy (J/kg) Ambient,  293 K: -3.08E+06
                                  500 K: -2.84E+06
                                 1000 K: -2.22E+06
                                 1500 K: -1.53E+06
    Spec. Heat (J/kg/K) Ambient,  293 K:  1.12E+03
                                  500 K:  1.17E+03
                                 1000 K:  1.32E+03
                                 1500 K:  1.43E+03
   Diff. Coeff. (m^2/s) Ambient,  293 K:  1.96E-05
                                  500 K:  5.00E-05
                                 1000 K:  1.62E-04
                                 1500 K:  3.19E-04


 Gas Phase Reaction Information

   AFT NIST Multi-Floor FDS5 Validation

   Reaction ID:  METHANE

   Fuel                                           Heat of Combustion (kJ/kg)
   REAC_FUEL                                                      52259.3517

   Stoichiometry

   Primitive Species Stoich. Coeff.
   Species ID                                                          Molar
   REAC_FUEL                                                       -1.000000
   OXYGEN                                                          -2.000000
   CARBON DIOXIDE                                                   1.000000
   WATER VAPOR                                                      2.000000

   Tracked (Lumped) Species Stoich. Coeff.
   Species ID                                             Molar         Mass
   AIR                                                -9.635819   -17.269730
   REAC_FUEL                                          -1.000000    -1.000000
   PRODUCTS                                           10.635819    18.269730

   Reaction Kinetics

   Arrhenius Parameters
   Pre-exponential:    Infinite
   Activation Energy:  N/A

   ODE Solver:  EXPLICIT EULER
   Extinction Model:  EXTINCTION 2
   Auto-Ignition Temperature (K):       0.0
   Critical Flame Temperature (K):   1700.2


 Material Information


 Surface Conditions

   0 INERT (DEFAULT)

   1 Surface01
     Wall or Vent Temperature (C)   300.0
     HRR Per Unit Area (kW/m2)        400.0
     REAC_FUEL Mass Flux (kg/s/m2)   7.65E-03

   2 OPEN
     Passive Vent to Atmosphere

   3 MIRROR
     Symmetry Plane

   4 INTERPOLATED

   5 PERIODIC

   6 HVAC

   7 MASSLESS TRACER

   8 DROPLET

   9 EVACUATION_OUTFLOW
     Normal Velocity (m/s)         0.000

  10 MASSLESS TARGET

  11 PERIODIC FLOW ONLY


 Device Properties

   1 Acme Heat
     RTI (m-s)^1/2                   50.0
     Activation Temperature (C)      50.0
     Smokeview ID                heat_detector


 Device Coordinates

     1 Coords:      6.700000      0.000000      2.350000, Make: Acme Heat, ID: HD, Quantity: LINK TEMPERATURE


 Slice File Information, Mesh     1

   Sampling Interval (s)             0.060

   1 Nodes:   0  36   3   3   0  12, Quantity: TEMPERATURE
   2 Nodes:   0  36   3   3   0  12, Quantity: U-VELOCITY
   3 Nodes:   0  36   3   3   0  12, Quantity: V-VELOCITY
   4 Nodes:   0  36   3   3   0  12, Quantity: W-VELOCITY


 Radiation Model Information

   Number of control angles  104
   Time step increment         3
   Angle increment             5
   Theta band N_phi   Solid angle
     1:        4     0.120
     2:       12     0.114
     3:       16     0.127
     4:       20     0.120
     5:       20     0.120
     6:       16     0.127
     7:       12     0.114
     8:        4     0.120
   Using gray gas absorption.
   Mean beam length  0.100 m
 
 

 Run Time Diagnostics

       Time Step       1   February 19, 2021  11:45:35
       Step Size:    0.204E+00 s, Total Time:       0.20 s
       Pressure Iterations:      1
       Maximum Velocity Error:  0.13E-02 on Mesh   1 at (   4   4   1)
       Maximum Pressure Error:  0.23E-03 on Mesh   1 at (   1   1  12)
       ---------------------------------------------------------------
       Max CFL number:  0.19E-01 at (   6,   2,   5)
       Max divergence:  0.57E-02 at (   3,   4,   2)
       Min divergence: -0.84E-06 at (  27,   5,   3)
       Max VN number:   0.14E-01 at (   8,   5,   4)
       Radiation Loss to Boundaries:         0.013 kW
 
       Time Step       2   February 19, 2021  11:45:35
       Step Size:    0.204E+00 s, Total Time:       0.41 s
       Pressure Iterations:      1
       Maximum Velocity Error:  0.42E-01 on Mesh   1 at (   4   4   1)
       Maximum Pressure Error:  0.42E+00 on Mesh   1 at (   4   3   2)
       ---------------------------------------------------------------
       Max CFL number:  0.19E-01 at (   6,   2,   5)
       Max divergence:  0.10E+01 at (   2,   3,   2)
       Min divergence: -0.84E-06 at (  27,   5,   3)
       Max VN number:   0.14E-01 at (   8,   5,   4)
       Total Heat Release Rate:             16.940 kW
       Radiation Loss to Boundaries:         0.013 kW
 
       Time Step       3   February 19, 2021  11:45:35
       Step Size:    0.204E+00 s, Total Time:       0.61 s
       Pressure Iterations:      1
       Maximum Velocity Error:  0.73E-01 on Mesh   1 at (   3   3   1)
       Maximum Pressure Error:  0.29E+02 on Mesh   1 at (   2   3   2)
       ---------------------------------------------------------------
       Max CFL number:  0.28E+00 at (   4,   4,   2)
       Max divergence:  0.43E-01 at (   3,   4,   3)
       Min divergence: -0.36E-01 at (   2,   3,   2)
       Max VN number:   0.25E-01 at (   4,   4,   3)
       Total Heat Release Rate:              0.002 kW
       Radiation Loss to Boundaries:        -0.002 kW
 
       Time Step       4   February 19, 2021  11:45:35
       Step Size:    0.204E+00 s, Total Time:       0.82 s
       Pressure Iterations:      3
       Maximum Velocity Error:  0.52E-01 on Mesh   1 at (   3   3   1)
       Maximum Pressure Error:  0.42E+03 on Mesh   1 at (   2   3   2)
       ---------------------------------------------------------------
       Max CFL number:  0.17E+00 at (   4,   4,   3)
       Max divergence:  0.13E+02 at (   3,   3,   2)
       Min divergence: -0.84E-06 at (  35,   4,   9)
       Max VN number:   0.32E-01 at (   2,   3,   3)
       Total Heat Release Rate:            217.932 kW
       Radiation Loss to Boundaries:        -3.468 kW
 
       Time Step       5   February 19, 2021  11:45:35
       Step Size:    0.590E-01 s, Total Time:       0.88 s
       Pressure Iterations:     10
       Maximum Velocity Error:  0.66E+00 on Mesh   1 at (   3   3   1)
       Maximum Pressure Error:  0.59E+03 on Mesh   1 at (   3   3   2)
       ---------------------------------------------------------------
       Max CFL number:  0.79E+00 at (   3,   4,   2)
       Max divergence:  0.38E+01 at (   2,   4,   2)
       Min divergence: -0.85E-06 at (  35,   4,   9)
       Max VN number:   0.11E+00 at (   2,   3,   2)
       Total Heat Release Rate:            239.063 kW
       Radiation Loss to Boundaries:       -95.209 kW
 
       Time Step       6   February 19, 2021  11:45:35
       Step Size:    0.649E-01 s, Total Time:       0.94 s
       Pressure Iterations:      6
       Maximum Velocity Error:  0.85E-01 on Mesh   1 at (   3   4   1)
       Maximum Pressure Error:  0.31E+03 on Mesh   1 at (   2   4   2)
       ---------------------------------------------------------------
       Max CFL number:  0.54E+00 at (   2,   4,   2)
       Max divergence:  0.16E+01 at (   5,   3,   2)
       Min divergence: -0.55E+01 at (   3,   3,   2)
       Max VN number:   0.11E+00 at (   4,   3,   2)
       Total Heat Release Rate:            235.640 kW
       Radiation Loss to Boundaries:      -252.087 kW
 
       Time Step       7   February 19, 2021  11:45:35
       Step Size:    0.713E-01 s, Total Time:       1.01 s
       Pressure Iterations:      6
       Maximum Velocity Error:  0.68E-01 on Mesh   1 at (   3   4   1)
       Maximum Pressure Error:  0.40E+03 on Mesh   1 at (   4   3   2)
       ---------------------------------------------------------------
       Max CFL number:  0.78E+00 at (   3,   3,   2)
       Max divergence:  0.11E+02 at (   2,   3,   2)
       Min divergence: -0.75E-06 at (  27,   1,   3)
       Max VN number:   0.83E-01 at (   5,   4,   2)
       Total Heat Release Rate:            213.720 kW
       Radiation Loss to Boundaries:       -45.443 kW
 
       Time Step       8   February 19, 2021  11:45:35
       Step Size:    0.619E-01 s, Total Time:       1.07 s
       Pressure Iterations:     10
       Maximum Velocity Error:  0.17E+00 on Mesh   1 at (   2   3   1)
       Maximum Pressure Error:  0.42E+03 on Mesh   1 at (   2   3   2)
       ---------------------------------------------------------------
       Max CFL number:  0.87E+00 at (   2,   4,   2)
       Max divergence:  0.82E+00 at (   3,   5,   2)
       Min divergence: -0.99E+01 at (   2,   3,   2)
       Max VN number:   0.50E+00 at (   2,   3,   2)
       Total Heat Release Rate:            148.415 kW
       Radiation Loss to Boundaries:      -206.016 kW
 
       Time Step       9   February 19, 2021  11:45:35
       Step Size:    0.527E-01 s, Total Time:       1.13 s
       Pressure Iterations:      7
       Maximum Velocity Error:  0.56E-01 on Mesh   1 at (   3   4   1)
       Maximum Pressure Error:  0.30E+03 on Mesh   1 at (   3   4   2)
       ---------------------------------------------------------------
       Max CFL number:  0.90E+00 at (   3,   3,   2)
       Max divergence:  0.11E+02 at (   2,   3,   2)
       Min divergence: -0.10E+01 at (   3,   4,   3)
       Max VN number:   0.84E-01 at (   3,   2,   2)
       Total Heat Release Rate:            159.919 kW
       Radiation Loss to Boundaries:       -61.397 kW
 
       Time Step      10   February 19, 2021  11:45:35
       Step Size:    0.527E-01 s, Total Time:       1.18 s
       Pressure Iterations:      5
       Maximum Velocity Error:  0.34E-01 on Mesh   1 at (   3   4   1)
       Maximum Pressure Error:  0.23E+03 on Mesh   1 at (   3   4   2)
       ---------------------------------------------------------------
       Max CFL number:  0.83E+00 at (   2,   3,   2)
       Max divergence:  0.14E+02 at (   3,   3,   2)
       Min divergence: -0.20E+01 at (   3,   4,   3)
       Max VN number:   0.38E+00 at (   2,   3,   2)
       Total Heat Release Rate:            182.055 kW
       Radiation Loss to Boundaries:       -93.459 kW
 
       Time Step      20   February 19, 2021  11:45:36
       Step Size:    0.449E-01 s, Total Time:       1.72 s
       Pressure Iterations:      1
       Maximum Velocity Error:  0.22E-01 on Mesh   1 at (   2   4   1)
       Maximum Pressure Error:  0.43E+02 on Mesh   1 at (   3   4   2)
       ---------------------------------------------------------------
       Max CFL number:  0.90E+00 at (   2,   4,   6)
       Max divergence:  0.29E+01 at (   2,   4,   2)
       Min divergence: -0.70E+00 at (   2,   4,   6)
       Max VN number:   0.32E+00 at (   2,   4,   6)
       Total Heat Release Rate:             89.558 kW
       Radiation Loss to Boundaries:       -21.678 kW
 
       Time Step      30   February 19, 2021  11:45:36
       Step Size:    0.404E-01 s, Total Time:       2.15 s
       Pressure Iterations:      1
       Maximum Velocity Error:  0.66E-02 on Mesh   1 at (   3   3   1)
       Maximum Pressure Error:  0.33E+02 on Mesh   1 at (   3   4   2)
       ---------------------------------------------------------------
       Max CFL number:  0.92E+00 at (   2,   3,  10)
       Max divergence:  0.29E+01 at (   3,   3,   2)
       Min divergence: -0.56E+00 at (   2,   3,  11)
       Max VN number:   0.33E+00 at (   2,   4,  10)
       Total Heat Release Rate:             98.011 kW
       Radiation Loss to Boundaries:       -29.652 kW
 
       Time Step      40   February 19, 2021  11:45:37
       Step Size:    0.445E-01 s, Total Time:       2.57 s
       Pressure Iterations:      1
       Maximum Velocity Error:  0.28E-01 on Mesh   1 at (   2   4   1)
       Maximum Pressure Error:  0.33E+02 on Mesh   1 at (   1   4  10)
       ---------------------------------------------------------------
       Max CFL number:  0.85E+00 at (   1,   3,   9)
       Max divergence:  0.27E+01 at (   3,   3,   2)
       Min divergence: -0.39E+00 at (   2,   4,   5)
       Max VN number:   0.52E+00 at (   2,   3,  12)
       Total Heat Release Rate:             94.308 kW
       Radiation Loss to Boundaries:       -27.734 kW
 
       Time Step      50   February 19, 2021  11:45:37
       Step Size:    0.445E-01 s, Total Time:       3.02 s
       Pressure Iterations:      1
       Maximum Velocity Error:  0.12E-01 on Mesh   1 at (   2   4   1)
       Maximum Pressure Error:  0.64E+02 on Mesh   1 at (   3   4   2)
       ---------------------------------------------------------------
       Max CFL number:  0.82E+00 at (   1,   3,   9)
       Max divergence:  0.27E+01 at (   3,   3,   2)
       Min divergence: -0.68E+00 at (   2,   4,   4)
       Max VN number:   0.53E+00 at (   2,   4,  12)
       Total Heat Release Rate:             97.184 kW
       Radiation Loss to Boundaries:       -32.959 kW
 
       Time Step      60   February 19, 2021  11:45:38
       Step Size:    0.489E-01 s, Total Time:       3.49 s
       Pressure Iterations:      1
       Maximum Velocity Error:  0.13E-01 on Mesh   1 at (   2   3   1)
       Maximum Pressure Error:  0.37E+02 on Mesh   1 at (   2   4   2)
       ---------------------------------------------------------------
       Max CFL number:  0.81E+00 at (   2,   4,   5)
       Max divergence:  0.28E+01 at (   3,   3,   2)
       Min divergence: -0.80E+00 at (   2,   4,   4)
       Max VN number:   0.46E+00 at (   2,   2,  12)
       Total Heat Release Rate:            105.985 kW
       Radiation Loss to Boundaries:       -33.386 kW
 
       Time Step      70   February 19, 2021  11:45:38
       Step Size:    0.489E-01 s, Total Time:       3.98 s
       Pressure Iterations:      1
       Maximum Velocity Error:  0.34E-01 on Mesh   1 at (   2   3   1)
       Maximum Pressure Error:  0.48E+02 on Mesh   1 at (   2   4   2)
       ---------------------------------------------------------------
       Max CFL number:  0.80E+00 at (   2,   4,   6)
       Max divergence:  0.24E+01 at (   3,   3,   2)
       Min divergence: -0.78E+00 at (   2,   3,   4)
       Max VN number:   0.44E+00 at (   2,   4,  12)
       Total Heat Release Rate:             97.455 kW
       Radiation Loss to Boundaries:       -33.484 kW
 
       Time Step      80   February 19, 2021  11:45:39
       Step Size:    0.538E-01 s, Total Time:       4.51 s
       Pressure Iterations:      1
       Maximum Velocity Error:  0.23E-01 on Mesh   1 at (   2   4   1)
       Maximum Pressure Error:  0.18E+03 on Mesh   1 at (   2   3   2)
       ---------------------------------------------------------------
       Max CFL number:  0.87E+00 at (   2,   4,   8)
       Max divergence:  0.24E+01 at (   3,   3,   2)
       Min divergence: -0.64E+00 at (   2,   3,   5)
       Max VN number:   0.57E+00 at (   2,   4,  12)
       Total Heat Release Rate:            100.204 kW
       Radiation Loss to Boundaries:       -35.392 kW
 
       Time Step      90   February 19, 2021  11:45:39
       Step Size:    0.538E-01 s, Total Time:       5.05 s
       Pressure Iterations:      1
       Maximum Velocity Error:  0.61E-01 on Mesh   1 at (   3   4   1)
       Maximum Pressure Error:  0.63E+02 on Mesh   1 at (   3   4   2)
       ---------------------------------------------------------------
       Max CFL number:  0.91E+00 at (   2,   3,  10)
       Max divergence:  0.42E+01 at (   3,   4,   2)
       Min divergence: -0.93E+00 at (   3,   4,   3)
       Max VN number:   0.63E+00 at (   2,   4,  12)
       Total Heat Release Rate:            106.400 kW
       Radiation Loss to Boundaries:       -30.083 kW
 
       Time Step     100   February 19, 2021  11:45:40
       Step Size:    0.538E-01 s, Total Time:       5.59 s
       Pressure Iterations:      1
       Maximum Velocity Error:  0.21E-01 on Mesh   1 at (   2   4   1)
       Maximum Pressure Error:  0.68E+02 on Mesh   1 at (   2   3   2)
       ---------------------------------------------------------------
       Max CFL number:  0.93E+00 at (   3,   4,   5)
       Max divergence:  0.28E+01 at (   2,   4,   2)
       Min divergence: -0.64E+00 at (   2,   4,   3)
       Max VN number:   0.58E+00 at (   2,   3,  12)
       Total Heat Release Rate:             96.215 kW
       Radiation Loss to Boundaries:       -29.943 kW
 
       Time Step     200   February 19, 2021  11:45:45
       Step Size:    0.467E-01 s, Total Time:      10.40 s
       Pressure Iterations:      1
       Maximum Velocity Error:  0.44E-01 on Mesh   1 at (   2   3   1)
       Maximum Pressure Error:  0.11E+02 on Mesh   1 at (   1   3   6)
       ---------------------------------------------------------------
       Max CFL number:  0.93E+00 at (   2,   3,   9)
       Max divergence:  0.26E+01 at (   2,   4,   2)
       Min divergence: -0.98E+00 at (   2,   3,   4)
       Max VN number:   0.53E+00 at (   2,   3,  12)
       Total Heat Release Rate:            106.220 kW
       Radiation Loss to Boundaries:       -36.917 kW
 
       Time Step     300   February 19, 2021  11:45:50
       Step Size:    0.435E-01 s, Total Time:      15.50 s
       Pressure Iterations:      1
       Maximum Velocity Error:  0.40E-01 on Mesh   1 at (   2   4   1)
       Maximum Pressure Error:  0.96E+02 on Mesh   1 at (   2   4   2)
       ---------------------------------------------------------------
       Max CFL number:  0.90E+00 at (   2,   4,   7)
       Max divergence:  0.29E+01 at (   2,   3,   2)
       Min divergence: -0.87E+00 at (   2,   4,   5)
       Max VN number:   0.44E+00 at (   2,   4,  12)
       Total Heat Release Rate:             93.385 kW
       Radiation Loss to Boundaries:       -27.906 kW
 
       Time Step     400   February 19, 2021  11:45:55
       Step Size:    0.503E-01 s, Total Time:      20.59 s
       Pressure Iterations:      1
       Maximum Velocity Error:  0.17E-01 on Mesh   1 at (   2   4   1)
       Maximum Pressure Error:  0.12E+03 on Mesh   1 at (   3   3   2)
       ---------------------------------------------------------------
       Max CFL number:  0.90E+00 at (   2,   4,   8)
       Max divergence:  0.28E+01 at (   2,   3,   2)
       Min divergence: -0.86E+00 at (   2,   4,   4)
       Max VN number:   0.53E+00 at (   2,   4,  12)
       Total Heat Release Rate:             96.061 kW
       Radiation Loss to Boundaries:       -32.073 kW
 
       Time Step     500   February 19, 2021  11:46:01
       Step Size:    0.534E-01 s, Total Time:      25.65 s
       Pressure Iterations:      1
       Maximum Velocity Error:  0.24E-01 on Mesh   1 at (   2   3   1)
       Maximum Pressure Error:  0.13E+03 on Mesh   1 at (   2   3   2)
       ---------------------------------------------------------------
       Max CFL number:  0.92E+00 at (   2,   4,   6)
       Max divergence:  0.30E+01 at (   2,   4,   2)
       Min divergence: -0.86E+00 at (   2,   3,   3)
       Max VN number:   0.48E+00 at (   2,   3,  12)
       Total Heat Release Rate:            100.366 kW
       Radiation Loss to Boundaries:       -37.461 kW
 
       Time Step     600   February 19, 2021  11:46:06
       Step Size:    0.436E-01 s, Total Time:      30.54 s
       Pressure Iterations:      1
       Maximum Velocity Error:  0.13E-01 on Mesh   1 at (   3   4   1)
       Maximum Pressure Error:  0.15E+02 on Mesh   1 at (   2   4   7)
       ---------------------------------------------------------------
       Max CFL number:  0.86E+00 at (   2,   4,   6)
       Max divergence:  0.27E+01 at (   2,   4,   2)
       Min divergence: -0.83E+00 at (   2,   4,   6)
       Max VN number:   0.45E+00 at (   2,   3,  12)
       Total Heat Release Rate:             97.986 kW
       Radiation Loss to Boundaries:       -29.099 kW
 
       Time Step     700   February 19, 2021  11:46:11
       Step Size:    0.446E-01 s, Total Time:      35.56 s
       Pressure Iterations:      1
       Maximum Velocity Error:  0.52E-01 on Mesh   1 at (   3   3   1)
       Maximum Pressure Error:  0.85E+02 on Mesh   1 at (   3   3   2)
       ---------------------------------------------------------------
       Max CFL number:  0.87E+00 at (   1,   4,   8)
       Max divergence:  0.33E+01 at (   3,   3,   2)
       Min divergence: -0.12E+01 at (   2,   3,   4)
       Max VN number:   0.43E+00 at (   2,   3,  12)
       Total Heat Release Rate:            100.904 kW
       Radiation Loss to Boundaries:       -33.303 kW
 
       Time Step     800   February 19, 2021  11:46:16
       Step Size:    0.467E-01 s, Total Time:      40.49 s
       Pressure Iterations:      1
       Maximum Velocity Error:  0.31E-01 on Mesh   1 at (   3   3   1)
       Maximum Pressure Error:  0.22E+03 on Mesh   1 at (   3   4   2)
       ---------------------------------------------------------------
       Max CFL number:  0.79E+00 at (   2,   3,  10)
       Max divergence:  0.41E+01 at (   2,   4,   2)
       Min divergence: -0.31E+00 at (   1,   4,   5)
       Max VN number:   0.47E+00 at (   2,   3,  12)
       Total Heat Release Rate:            107.809 kW
       Radiation Loss to Boundaries:       -34.198 kW
 
       Time Step     900   February 19, 2021  11:46:22
       Step Size:    0.517E-01 s, Total Time:      45.54 s
       Pressure Iterations:      1
       Maximum Velocity Error:  0.22E-01 on Mesh   1 at (   3   4   1)
       Maximum Pressure Error:  0.15E+03 on Mesh   1 at (   2   3   2)
       ---------------------------------------------------------------
       Max CFL number:  0.91E+00 at (   2,   3,   5)
       Max divergence:  0.24E+01 at (   2,   4,   2)
       Min divergence: -0.13E+01 at (   2,   3,   3)
       Max VN number:   0.58E+00 at (   2,   3,  12)
       Total Heat Release Rate:             95.023 kW
       Radiation Loss to Boundaries:       -35.664 kW
 
       Time Step    1000   February 19, 2021  11:46:27
       Step Size:    0.514E-01 s, Total Time:      50.75 s
       Pressure Iterations:      1
       Maximum Velocity Error:  0.32E-01 on Mesh   1 at (   2   4   1)
       Maximum Pressure Error:  0.12E+03 on Mesh   1 at (   3   4   2)
       ---------------------------------------------------------------
       Max CFL number:  0.88E+00 at (   1,   3,  11)
       Max divergence:  0.35E+01 at (   2,   4,   2)
       Min divergence: -0.82E+00 at (   2,   4,   3)
       Max VN number:   0.51E+00 at (   1,   3,  12)
       Total Heat Release Rate:            103.046 kW
       Radiation Loss to Boundaries:       -31.787 kW
 
       Time Step    1100   February 19, 2021  11:46:32
       Step Size:    0.522E-01 s, Total Time:      55.83 s
       Pressure Iterations:      1
       Maximum Velocity Error:  0.59E-01 on Mesh   1 at (   3   4   1)
       Maximum Pressure Error:  0.37E+02 on Mesh   1 at (   3   3   2)
       ---------------------------------------------------------------
       Max CFL number:  0.86E+00 at (   2,   4,  10)
       Max divergence:  0.36E+01 at (   3,   4,   2)
       Min divergence: -0.16E+01 at (   3,   4,   3)
       Max VN number:   0.55E+00 at (   2,   3,  12)
       Total Heat Release Rate:            112.133 kW
       Radiation Loss to Boundaries:       -38.614 kW
 
       Time Step    1184   February 19, 2021  11:46:36
       Step Size:    0.139E-01 s, Total Time:      60.00 s
       Pressure Iterations:      3
       Maximum Velocity Error:  0.41E-01 on Mesh   1 at (   3   4   1)
       Maximum Pressure Error:  0.31E+03 on Mesh   1 at (   3   4   2)
       ---------------------------------------------------------------
       Max CFL number:  0.25E+00 at (   3,   4,   6)
       Max divergence:  0.33E+01 at (   3,   4,   2)
       Min divergence: -0.81E+00 at (   2,   3,   5)
       Max VN number:   0.11E+00 at (   4,   4,  12)
       Total Heat Release Rate:            108.341 kW
       Radiation Loss to Boundaries:       -29.535 kW
 


 DEVICE Activation Times

   1  HD                                                              40.5 s


 Time Stepping Wall Clock Time (s):       61.668
 Total Elapsed Wall Clock Time (s):       64.282

STOP: FDS completed successfully (CHID: meshres)
